
This summary file was generated by TurbSim (v1.50, 25-Sep-2009) on 25-Sep-2009 at 13:08:04.


Runtime Options:

    234516  Random seed #1
    789012  Random seed #2
         F  Output binary HH turbulence parameters?
         T  Output formatted turbulence parameters?
         F  Output AeroDyn HH files?
         T  Output AeroDyn FF files?
         F  Output BLADED FF files?
         F  Output tower data?
         F  Output formatted FF files?
         T  Output coherent turbulence time step file?
         T  Clockwise rotation when looking downwind?
 0 -  NONE  IEC turbulence models scaled to exact specified standard deviation


Turbine/Model Specifications:

         5  Vertical grid-point matrix dimension
         5  Horizontal grid-point matrix dimension
     0.050  Time step [seconds]
   600.000  Analysis time [seconds]
    90.000  Usable output time [seconds]
    90.000  Hub height [m]
    80.000  Grid height [m]
    80.000  Grid width [m]
     0.000  Vertical flow angle [degrees]
     0.000  Horizontal flow angle [degrees]


Meteorological Boundary Conditions:

    GP_LLJ  Great Plains Low-Level Jet spectral model
       N/A  IEC standard
       N/A  IEC turbulence characteristic
       N/A  IEC turbulence type
       N/A  IEC Extreme Turbulence Model (ETM) "c" parameter [m/s]
       JET  Wind profile type
    85.000  Reference height [m]
    12.000  Reference wind speed [m/s]
   350.000  Jet height [m]
       N/A  Power law exponent
     0.005  Surface roughness length [m]


Non-IEC Meteorological Boundary Conditions:

    45.000  Site latitude [degrees]
     0.050  Gradient Richardson number
     0.410  Friction or shear velocity [m/s]
  1134.631  Mixing layer depth [m]
    -0.183  Mean hub u'w' Reynolds stress
     0.187  Mean hub u'v' Reynolds stress
     0.051  Mean hub v'w' Reynolds stress
(    9.672, 0.633E-03)  u-component coherence parameters
(    6.636, 0.153E-02)  v-component coherence parameters
(    4.496, 0.695E-02)  w-component coherence parameters
     0.000  Coherence exponent


Coherent Turbulence Scaling Parameters:

.\EventData
            Name of the path containing the coherent turbulence data files
       LES  Type of coherent turbulence data files
         T  Randomize the disturbance scale and location?
     1.000  Disturbance scale (ratio of wave height to rotor diameter)
     0.500  Fractional location of tower centerline from right
     0.500  Fractional location of hub height from the bottom of the dataset
    30.000  Minimum start time for coherent structures [seconds]


You have requested that the following file(s) be generated:

   GPLLJ.dat (formatted turbulence-parameter file)
   GPLLJ.bts (AeroDyn/TurbSim full-field wind file)
   GPLLJ.cts (AeroDyn coherent turbulence time step file)


Turbulence Simulation Scaling Parameter Summary:

   Turbulence model used                            =  Great Plains Low-Level Jet
   Gradient Richardson number                       =    0.050
   Monin-Obukhov (M-O) z/L parameter                =    0.237
   Monin-Obukhov (M-O) length scale                 =  380.402 m
   Mean wind speed at hub height                    =   12.177 m/s

   Wind profile type                                =  Low-level jet
   Jet height                                       =  350.000 m
   Jet wind speed                                   =   21.112 m/s
   Upper limit of observed jet wind speed           =   24.968 m/s
   Equivalent power law exponent across rotor disk  =    0.253
   Mean shear across rotor disk                     =    0.037 (m/s)/m
   Assumed rotor diameter                           =   80.000 m
   Surface roughness length                         =    0.005 m

   Number of time steps in the FFT                  =    12000
   Number of time steps output                      =     1932


Mean Flow Angles:

   Vertical   =   0.0 degrees
   Horizontal =   0.0 degrees

Mean Wind Speed Profile:

   Height    Wind Speed   Horizontal Angle  U-comp (X)   V-comp (Y)   W-comp (Z)   z/L(z)    u*(z)
     (m)        (m/s)         (degrees)       (m/s)        (m/s)        (m/s)       (-)      (m/s)
   ------    ----------   ----------------  ----------   ----------   ----------   ------   ------
    130.0       13.88            0.08         13.88         0.02         0.00       0.245    0.368
    110.0       12.97            0.25         12.97         0.06         0.00       0.240    0.390
     90.0       12.18            0.00         12.18         0.00         0.00       0.236    0.428
     70.0       11.52           -0.48         11.52        -0.10         0.00       0.232    0.472
     50.0       10.90           -0.68         10.90        -0.13         0.00       0.229    0.433


Harvested Random Seeds after Generation of the Random Numbers:

   1117125210 Harvested seed #1
    170516282 Harvested seed #2


Scaling statistics from the hub grid point:

   Cross-Component  Scaling Factor
   ---------------  --------------
   u'w'               -0.19471E+00
   u'v'                0.38205E+00
   v'w'                0.28278E+00


Hub-Height Simulated Turbulence Statistical Summary:

   Type of Wind        Min (m/s)   Mean (m/s)    Max (m/s)  Sigma (m/s)       TI (%)
   ----------------    ---------   ----------    ---------  -----------       ------
   Longitudinal (u)         9.67        12.18        15.32        0.844        6.931
   Lateral (v)             -2.56         0.00         2.66        0.785        6.448
   Vertical (w)            -2.20         0.00         2.49        0.638        5.242
   U component              9.67        12.18        15.32        0.844        6.931
   V component             -2.56         0.00         2.66        0.785        6.448
   W component             -2.20         0.00         2.49        0.638        5.242
   Horizontal (U&V)         9.73        12.20        15.34        0.843        6.907
   Total                    9.81        12.22        15.36        0.840        6.872

                       Min Reynolds     Mean Reynolds    Max Reynolds    Correlation
   Product             Stress (m/s)^2   Stress (m/s)^2   Stress (m/s)^2  Coefficient
   ----------------    --------------   --------------   --------------  -----------
   u'w'                     -4.394            -0.183             2.505        -0.340
   u'v'                     -2.496             0.187             4.463         0.282
   v'w'                     -3.211             0.051             3.646         0.102


   Friction Velocity (Ustar)  =      0.428 m/s
   Maximum Instantaneous TKE  =      5.568 (m/s)^2
   Maximum Instantaneous CTKE =      2.743 (m/s)^2


Grid Point Variance Summary:

   Y-coord  -40.00  -20.00    0.00   20.00   40.00

   Height   Standard deviation at grid points for the u component:
   130.00    0.799   0.760   0.639   0.660   0.733
   110.00    0.791   0.778   0.719   0.774   0.735
    90.00    0.795   0.781   0.844   0.945   0.905
    70.00    0.931   0.930   1.003   1.024   1.076
    50.00    0.936   0.922   0.959   0.858   0.936

   Height   Standard deviation at grid points for the v component:
   130.00    0.740   0.759   0.700   0.657   0.655
   110.00    0.795   0.755   0.759   0.747   0.716
    90.00    0.799   0.815   0.785   0.812   0.790
    70.00    0.924   0.909   0.860   0.883   0.910
    50.00    0.795   0.812   0.839   0.788   0.834

   Height   Standard deviation at grid points for the w component:
   130.00    0.494   0.521   0.499   0.535   0.518
   110.00    0.549   0.537   0.546   0.550   0.542
    90.00    0.589   0.599   0.638   0.656   0.640
    70.00    0.664   0.650   0.671   0.660   0.687
    50.00    0.608   0.612   0.626   0.609   0.611

   Mean standard deviation across all grid points:
      u component:    0.849 m/s
      v component:    0.794 m/s
      w component:    0.592 m/s


Average expected time between events =  248.914 seconds
Number of coherent events            =        0
Predicted length of coherent events  =    3.284 seconds
Length of coherent events            =    0.000 seconds
Maximum predicted event CTKE         =    5.538 (m/s)^2


U-component (X) statistics from the hub grid point:

   Mean =  12.1770 m/s
   TI   =   6.9310 %

Nyquist frequency of turbulent wind field =        10.000 Hz


Processing complete.  0.59375 CPU seconds used.
