
This summary file was generated by TurbSim (v1.07.00a-bjj, 9-Jul-2014) on 09-Jul-2014 at 12:14:11.


Runtime Options:

      5185  Random seed #1
    RANLUX  Type of random number generator
         F  Output binary HH turbulence parameters?
         F  Output formatted turbulence parameters?
         F  Output AeroDyn HH files?
         F  Output AeroDyn FF files?
         T  Output BLADED FF files?
         F  Output tower data?
         T  Output formatted FF files?
         T  Output coherent turbulence time step file?
         T  Clockwise rotation when looking downwind?
 0 -  NONE  IEC turbulence models scaled to exact specified standard deviation


Turbine/Model Specifications:

        13  Vertical grid-point matrix dimension
        13  Horizontal grid-point matrix dimension
     0.050  Time step [seconds]
   600.000  Analysis time [seconds]
    75.000  Usable output time [seconds]
    84.288  Hub height [m]
    80.000  Grid height [m]
    80.000  Grid width [m]
     0.000  Vertical flow angle [degrees]
     0.000  Horizontal flow angle [degrees]


Meteorological Boundary Conditions:

    GP_LLJ  Great Plains Low-Level Jet spectral model
       N/A  IEC standard
       N/A  IEC turbulence characteristic
       N/A  IEC turbulence type
       N/A  IEC Extreme Turbulence Model (ETM) "c" parameter [m/s]
       JET  Wind profile type
    84.288  Reference height [m]
    13.500  Reference wind speed [m/s]
   400.000  Jet height [m]
       N/A  Power law exponent
     0.005  Surface roughness length [m]


Non-IEC Meteorological Boundary Conditions:

    45.000  Site latitude [degrees]
     0.150  Gradient Richardson number
     0.640  Friction or shear velocity [m/s]
  1034.333  Mixing layer depth [m]
    -0.476  Mean hub u'w' Reynolds stress
    -0.440  Mean hub u'v' Reynolds stress
     0.113  Mean hub v'w' Reynolds stress
(    9.957, 0.486E-03)  u-component coherence parameters
(    6.949, 0.628E-03)  v-component coherence parameters
(    4.555, 0.438E-02)  w-component coherence parameters
     0.000  Coherence exponent


Coherent Turbulence Scaling Parameters:

Y:\Wind\Archive\Public\Projects\Projects G-R\KH_Billow\EventData
            Name of the path containing the coherent turbulence data files
       les  Type of coherent turbulence data files
         T  Randomize the disturbance scale and location?
     1.000  Disturbance scale (ratio of wave height to rotor diameter)
     0.500  Fractional location of tower centerline from right
     0.500  Fractional location of hub height from the bottom of the dataset
     0.000  Minimum start time for coherent structures [seconds]


You have requested that the following file(s) be generated:

   GPLLJ_Large.wnd (AeroDyn/BLADED full-field wnd file)
   GPLLJ_Large.cts (AeroDyn coherent turbulence time step file)
   GPLLJ_Large.u (formatted full-field U-component file)
   GPLLJ_Large.v (formatted full-field V-component file)
   GPLLJ_Large.w (formatted full-field W-component file)


Turbulence Simulation Scaling Parameter Summary:

   Turbulence model used                            =  Great Plains Low-Level Jet
   Gradient Richardson number                       =    0.150
   Monin-Obukhov (M-O) z/L parameter                =    1.000
   Monin-Obukhov (M-O) length scale                 =   84.288 m
   Mean wind speed at hub height                    =   13.500 m/s

   Wind profile type                                =  Low-level jet
   Jet height                                       =  400.000 m
   Jet wind speed                                   =   24.405 m/s
   Upper limit of observed jet wind speed           =   27.078 m/s
   Equivalent power law exponent across rotor disk  =    0.180
   Mean shear across rotor disk                     =    0.031 (m/s)/m
   Assumed rotor diameter                           =   80.000 m
   Surface roughness length                         =    0.005 m

   Number of time steps in the FFT                  =    12000
   Number of time steps output                      =     1619


Mean Flow Angles:

   Vertical   =   0.0 degrees
   Horizontal =   0.0 degrees

Mean Wind Speed Profile:

   Height    Wind Speed   Horizontal Angle  U-comp (X)   V-comp (Y)   W-comp (Z)   z/L(z)    u*(z)
     (m)        (m/s)         (degrees)       (m/s)        (m/s)        (m/s)       (-)      (m/s)
   ------    ----------   ----------------  ----------   ----------   ----------   ------   ------
    124.3       14.79            1.01         14.79         0.26         0.00       1.006    0.561
    117.6       14.55            0.93         14.55         0.24         0.00       1.005    0.579
    111.0       14.33            0.81         14.33         0.20         0.00       1.004    0.598
    104.3       14.11            0.64         14.11         0.16         0.00       1.003    0.620
     97.6       13.90            0.44         13.90         0.11         0.00       1.002    0.643
     91.0       13.70            0.22         13.70         0.05         0.00       1.001    0.667
     84.3       13.50            0.00         13.50         0.00         0.00       0.999    0.690
     77.6       13.31           -0.21         13.31        -0.05         0.00       0.998    0.712
     71.0       13.12           -0.40         13.12        -0.09         0.00       0.998    0.729
     64.3       12.94           -0.54         12.94        -0.12         0.00       0.997    0.736
     57.6       12.74           -0.63         12.74        -0.14         0.00       0.996    0.725
     51.0       12.53           -0.64         12.53        -0.14         0.00       0.994    0.679
     44.3       12.28           -0.59         12.28        -0.13         0.00       0.932    0.679


Harvested Random Seeds after Generation of the Random Numbers:

     28265250 K1
            0 K2


Scaling statistics from the hub grid point:

   Cross-Component  Scaling Factor
   ---------------  --------------
   u'w'               -0.21536E+00
   u'v'               -0.24769E+00
   v'w'               -0.70961E-01


Hub-Height Simulated Turbulence Statistical Summary:

   Type of Wind        Min (m/s)   Mean (m/s)    Max (m/s)  Sigma (m/s)       TI (%)
   ----------------    ---------   ----------    ---------  -----------       ------
   Longitudinal (u)         8.41        13.50        18.40        1.513       11.207
   Lateral (v)             -3.58         0.00         4.71        1.167        8.648
   Vertical (w)            -3.17         0.00         3.66        0.902        6.681
   U component              8.41        13.50        18.40        1.513       11.207
   V component             -3.58         0.00         4.71        1.167        8.648
   W component             -3.17         0.00         3.66        0.902        6.681
   Horizontal (U&V)         8.41        13.55        18.48        1.507       11.118
   Total                    8.41        13.58        18.57        1.503       11.065

                       Min Reynolds     Mean Reynolds    Max Reynolds    Correlation
   Product             Stress (m/s)^2   Stress (m/s)^2   Stress (m/s)^2  Coefficient
   ----------------    --------------   --------------   --------------  -----------
   u'w'                    -10.794            -0.476             6.140        -0.349
   u'v'                    -13.609            -0.440            12.317        -0.249
   v'w'                     -6.023             0.113             8.065         0.107


   Friction Velocity (Ustar)  =      0.690 m/s
   Maximum Instantaneous TKE  =     16.038 (m/s)^2
   Maximum Instantaneous CTKE =      8.932 (m/s)^2


Grid Point Variance Summary:

   Y-coord  -40.00  -33.33  -26.67  -20.00  -13.33   -6.67    0.00    6.67   13.33   20.00   26.67   33.33   40.00

   Height   Standard deviation at grid points for the u component:
   124.29    1.225   1.205   1.173   1.173   1.102   1.123   1.167   1.216   1.172   1.143   1.168   1.162   1.158
   117.62    1.251   1.235   1.272   1.226   1.196   1.240   1.167   1.277   1.298   1.284   1.211   1.237   1.235
   110.95    1.351   1.323   1.295   1.356   1.257   1.288   1.322   1.338   1.366   1.346   1.324   1.356   1.353
   104.29    1.339   1.298   1.360   1.330   1.412   1.369   1.320   1.390   1.407   1.346   1.372   1.369   1.392
    97.62    1.355   1.380   1.384   1.396   1.418   1.464   1.457   1.442   1.374   1.387   1.365   1.430   1.416
    90.95    1.397   1.396   1.349   1.452   1.432   1.485   1.506   1.506   1.448   1.399   1.473   1.507   1.448
    84.29    1.430   1.446   1.454   1.456   1.474   1.490   1.513   1.508   1.513   1.526   1.569   1.534   1.530
    77.62    1.546   1.509   1.499   1.495   1.517   1.629   1.590   1.517   1.548   1.611   1.622   1.578   1.540
    70.95    1.565   1.514   1.543   1.576   1.618   1.680   1.669   1.606   1.602   1.604   1.658   1.660   1.611
    64.29    1.626   1.530   1.561   1.578   1.652   1.631   1.684   1.693   1.648   1.678   1.626   1.685   1.705
    57.62    1.578   1.567   1.587   1.561   1.581   1.603   1.584   1.664   1.667   1.681   1.609   1.648   1.633
    50.95    1.519   1.582   1.457   1.495   1.485   1.515   1.489   1.517   1.533   1.546   1.575   1.520   1.578
    44.29    1.490   1.495   1.500   1.436   1.463   1.544   1.553   1.572   1.588   1.547   1.537   1.527   1.556

   Height   Standard deviation at grid points for the v component:
   124.29    0.989   1.002   1.032   1.046   1.040   1.008   1.039   1.042   1.001   1.029   1.083   1.042   1.058
   117.62    1.054   1.029   1.077   1.042   1.063   1.067   1.040   1.033   1.023   1.038   1.098   1.070   1.083
   110.95    1.105   1.052   1.044   1.055   1.066   1.084   1.082   1.064   1.051   1.082   1.094   1.115   1.132
   104.29    1.149   1.141   1.098   1.086   1.082   1.130   1.110   1.113   1.129   1.140   1.126   1.116   1.148
    97.62    1.179   1.156   1.102   1.082   1.132   1.139   1.179   1.188   1.209   1.188   1.164   1.162   1.162
    90.95    1.231   1.214   1.137   1.115   1.130   1.155   1.164   1.177   1.163   1.211   1.170   1.230   1.195
    84.29    1.264   1.238   1.215   1.202   1.189   1.159   1.167   1.205   1.226   1.214   1.195   1.266   1.272
    77.62    1.246   1.259   1.251   1.233   1.231   1.226   1.197   1.241   1.228   1.244   1.251   1.278   1.254
    70.95    1.276   1.292   1.292   1.273   1.247   1.206   1.253   1.257   1.264   1.278   1.252   1.311   1.250
    64.29    1.272   1.285   1.275   1.288   1.264   1.226   1.276   1.260   1.287   1.294   1.270   1.309   1.268
    57.62    1.255   1.274   1.277   1.229   1.240   1.213   1.214   1.244   1.242   1.267   1.241   1.259   1.243
    50.95    1.196   1.212   1.214   1.196   1.214   1.176   1.179   1.192   1.174   1.210   1.231   1.174   1.203
    44.29    1.211   1.226   1.208   1.204   1.223   1.169   1.154   1.179   1.147   1.175   1.172   1.174   1.196

   Height   Standard deviation at grid points for the w component:
   124.29    0.746   0.748   0.728   0.722   0.734   0.719   0.723   0.728   0.727   0.719   0.723   0.712   0.727
   117.62    0.791   0.784   0.776   0.759   0.765   0.781   0.771   0.737   0.753   0.756   0.753   0.754   0.734
   110.95    0.802   0.792   0.804   0.798   0.791   0.791   0.763   0.788   0.798   0.787   0.782   0.790   0.754
   104.29    0.821   0.808   0.809   0.807   0.836   0.797   0.807   0.811   0.793   0.808   0.810   0.824   0.800
    97.62    0.831   0.831   0.828   0.842   0.840   0.840   0.845   0.845   0.832   0.830   0.825   0.827   0.852
    90.95    0.890   0.877   0.866   0.852   0.864   0.864   0.868   0.860   0.848   0.888   0.878   0.888   0.891
    84.29    0.909   0.887   0.910   0.894   0.902   0.882   0.902   0.867   0.870   0.916   0.939   0.933   0.933
    77.62    0.928   0.926   0.925   0.934   0.950   0.947   0.951   0.936   0.928   0.926   0.974   0.958   0.951
    70.95    0.937   0.929   0.942   0.928   0.943   0.937   0.962   0.959   0.949   0.934   0.974   0.979   0.994
    64.29    0.937   0.935   0.927   0.947   0.939   0.974   0.986   0.987   0.983   0.987   0.993   0.984   0.987
    57.62    0.923   0.928   0.949   0.938   0.923   0.964   0.951   0.977   0.967   0.970   0.954   0.973   0.943
    50.95    0.884   0.904   0.882   0.872   0.864   0.868   0.871   0.907   0.885   0.891   0.908   0.910   0.921
    44.29    0.888   0.892   0.873   0.857   0.870   0.878   0.888   0.886   0.905   0.920   0.901   0.894   0.905

   Mean standard deviation across all grid points:
      u component:    1.454 m/s
      v component:    1.173 m/s
      w component:    0.868 m/s


Average expected time between events =  210.356 seconds
Number of coherent events            =        1
Predicted length of coherent events  =    2.571 seconds
Length of coherent events            =    9.009 seconds
Maximum predicted event CTKE         =    5.650 (m/s)^2


U-component (X) statistics from the hub grid point:

   Mean =  13.5000 m/s
   TI   =  11.2068 %


Normalizing Parameters for Binary Data (approximate statistics):

   UBar  =  13.5000 m/s
   TI(u) =  11.2068 %
   TI(v) =   8.6475 %
   TI(w) =   6.6807 %

   Height Offset =   0.0000 m
   Grid Base     =  44.2876 m

Creating a PERIODIC output file.

Nyquist frequency of turbulent wind field =        10.000 Hz
Nyquist frequency of coherent turbulent events =    5.328 Hz


Processing complete.  8.8609 CPU seconds used.
