
This summary file was generated by TurbSim (v1.06.01a-bjj, 18-Oct-2012) on 18-Oct-2012 at 11:52:11.


Runtime Options:

    123456  Random seed #1
    789012  Random seed #2
         F  Output binary HH turbulence parameters?
         F  Output formatted turbulence parameters?
         F  Output AeroDyn HH files?
         F  Output AeroDyn FF files?
         F  Output BLADED FF files?
         F  Output tower data?
         T  Output formatted FF files?
         F  Output coherent turbulence time step file?
         T  Clockwise rotation when looking downwind?
 0 -  NONE  IEC turbulence models scaled to exact specified standard deviation


Turbine/Model Specifications:

         5  Vertical grid-point matrix dimension
         5  Horizontal grid-point matrix dimension
     0.050  Time step [seconds]
   600.000  Analysis time [seconds]
    55.800  Usable output time [seconds]
    37.000  Hub height [m]
    30.000  Grid height [m]
    30.000  Grid width [m]
     5.000  Vertical flow angle [degrees]
    10.000  Horizontal flow angle [degrees]


Meteorological Boundary Conditions:

    IECKAI  IEC Kaimal spectral model
         1  IEC standard: IEC 61400-1 Ed. 3: 2005
         C  IEC turbulence characteristic
       NTM  IEC Normal Turbulence Model
       N/A  IEC Extreme Turbulence Model (ETM) "c" parameter [m/s]
       IEC  Wind profile type
    10.000  Reference height [m]
     6.000  Reference wind speed [m/s]
       N/A  Jet height [m]
     0.200  Power law exponent
     0.030  Surface roughness length [m]


You have requested that the following file(s) be generated:

   Kaimal.u (formatted full-field U-component file)
   Kaimal.v (formatted full-field V-component file)
   Kaimal.w (formatted full-field W-component file)


Turbulence Simulation Scaling Parameter Summary:

   Turbulence model used                            =  IEC Kaimal
   Turbulence characteristic                        =  C
   IEC turbulence type                              =  Normal Turbulence Model
   IEC standard                                     =  IEC 61400-1 Ed. 3: 2005
   Mean wind speed at hub height                    =    7.351 m/s
   Expected value of turbulence intensity at 15 m/s =   12.000%
   Characteristic value of standard deviation       =    1.334 m/s
   Turbulence scale                                 =   25.900 m
   u-component integral scale                       =  209.790 m
   Coherency scale                                  =  209.790 m
   Characteristic value of hub turbulence intensity =   18.141%
   Gradient Richardson number                       =    0.000

   Wind profile type                                =  Power law on rotor disk, logarithmic elsewhere
   Power law exponent                               =    0.200
   Mean shear across rotor disk                     =    0.041 (m/s)/m
   Assumed rotor diameter                           =   30.000 m
   Surface roughness length                         =    0.030 m

   Number of time steps in the FFT                  =    12000
   Number of time steps output                      =     1198


Mean Flow Angles:

   Vertical   =   5.0 degrees
   Horizontal =  10.0 degrees

Mean Wind Speed Profile:

   Height    Wind Speed   Horizontal Angle  U-comp (X)   V-comp (Y)   W-comp (Z)
     (m)        (m/s)         (degrees)       (m/s)        (m/s)        (m/s)   
   ------    ----------   ----------------  ----------   ----------   ----------
     52.0        7.87           10.00          7.72         1.36         0.69
     44.5        7.63           10.00          7.48         1.32         0.66
     37.0        7.35           10.00          7.21         1.27         0.64
     29.5        7.03           10.00          6.89         1.22         0.61
     22.0        6.63           10.00          6.50         1.15         0.58


Harvested Random Seeds after Generation of the Random Numbers:

   1772867622 Harvested seed # 1
    170516282 Harvested seed # 2


Hub-Height Simulated Turbulence Statistical Summary:

   Type of Wind        Min (m/s)   Mean (m/s)    Max (m/s)  Sigma (m/s)       TI (%)
   ----------------    ---------   ----------    ---------  -----------       ------
   Longitudinal (u)         3.67         7.35        11.16        1.166       15.864
   Lateral (v)             -3.87         0.00         3.16        1.042       14.180
   Vertical (w)            -2.24         0.00         2.59        0.652        8.866
   U component              3.84         7.21        10.90        1.130       15.670
   V component             -2.75         1.27         4.68        1.074       14.895
   W component             -1.64         0.64         3.11        0.664        9.200
   Horizontal (U&V)         3.98         7.40        11.11        1.135       15.340
   Total                    3.99         7.46        11.16        1.139       15.278

                       Min Reynolds     Mean Reynolds    Max Reynolds    Correlation
   Product             Stress (m/s)^2   Stress (m/s)^2   Stress (m/s)^2  Coefficient
   ----------------    --------------   --------------   --------------  -----------
   u'w'                     -4.023             0.048             5.207         0.064
   u'v'                     -7.812             0.179            10.653         0.147
   v'w'                     -4.180             0.039             6.486         0.057


   Friction Velocity (Ustar)  =      0.220 m/s
   Maximum Instantaneous TKE  =     10.965 (m/s)^2
   Maximum Instantaneous CTKE =      5.330 (m/s)^2


Grid Point Variance Summary:

   Y-coord  -15.00   -7.50    0.00    7.50   15.00

   Height   Standard deviation at grid points for the u component:
    52.00    1.222   1.176   1.278   1.110   1.216
    44.50    1.198   1.119   1.214   1.194   1.164
    37.00    1.183   1.164   1.166   1.281   1.225
    29.50    1.246   1.164   1.200   1.209   1.169
    22.00    1.269   1.194   1.193   1.278   1.284

   Height   Standard deviation at grid points for the v component:
    52.00    1.042   1.042   1.042   1.042   1.042
    44.50    1.042   1.042   1.042   1.042   1.042
    37.00    1.042   1.042   1.042   1.042   1.042
    29.50    1.042   1.042   1.042   1.042   1.042
    22.00    1.042   1.042   1.042   1.042   1.042

   Height   Standard deviation at grid points for the w component:
    52.00    0.652   0.652   0.652   0.652   0.652
    44.50    0.652   0.652   0.652   0.652   0.652
    37.00    0.652   0.652   0.652   0.652   0.652
    29.50    0.652   0.652   0.652   0.652   0.652
    22.00    0.652   0.652   0.652   0.652   0.652

   Mean standard deviation across all grid points:
      u component:    1.205 m/s
      v component:    1.042 m/s
      w component:    0.652 m/s

Nyquist frequency of turbulent wind field =        10.000 Hz


Processing complete.  0.2184 CPU seconds used.
