
This summary file was generated by TurbSim (v1.05.01a, 25-Oct-2009) on 24-Jan-2012 at 13:01:31.


Runtime Options:

    123456  Random seed #1
    789012  Random seed #2
         F  Output binary HH turbulence parameters?
         F  Output formatted turbulence parameters?
         F  Output AeroDyn HH files?
         F  Output AeroDyn FF files?
         F  Output BLADED FF files?
         F  Output tower data?
         T  Output formatted FF files?
         F  Output coherent turbulence time step file?
         T  Clockwise rotation when looking downwind?
 0 -  NONE  IEC turbulence models scaled to exact specified standard deviation


Turbine/Model Specifications:

         5  Vertical grid-point matrix dimension
         5  Horizontal grid-point matrix dimension
     0.050  Time step [seconds]
   600.000  Analysis time [seconds]
    55.800  Usable output time [seconds]
    37.000  Hub height [m]
    30.000  Grid height [m]
    30.000  Grid width [m]
     5.000  Vertical flow angle [degrees]
    10.000  Horizontal flow angle [degrees]


Meteorological Boundary Conditions:

    IECKAI  IEC Kaimal spectral model
         1  IEC standard: IEC 61400-1 Ed. 2: 1999
    18.000  Percent turbulence intensity, IEC 61400-1 Ed. 2: 1999
       NTM  IEC Normal Turbulence Model
       N/A  IEC Extreme Turbulence Model (ETM) "c" parameter [m/s]
       IEC  Wind profile type
    10.000  Reference height [m]
    15.000  Reference wind speed [m/s]
       N/A  Jet height [m]
     0.200  Power law exponent
     0.030  Surface roughness length [m]


You have requested that the following file(s) be generated:

   Kaimal_15.u (formatted full-field U-component file)
   Kaimal_15.v (formatted full-field V-component file)
   Kaimal_15.w (formatted full-field W-component file)


Turbulence Simulation Scaling Parameter Summary:

   Turbulence model used                            =  IEC Kaimal
   Turbulence characteristic                        =  User-specified
   IEC standard                                     =  IEC 61400-1 Ed. 2: 1999
   Mean wind speed at hub height                    =   18.378 m/s
   Characteristic value of standard deviation       =    3.308 m/s
   Turbulence scale                                 =   21.000 m
   u-component integral scale                       =  170.100 m
   Coherency scale                                  =   73.500 m
   Characteristic value of hub turbulence intensity =   18.000%
   Gradient Richardson number                       =    0.000

   Wind profile type                                =  Power law on rotor disk, logarithmic elsewhere
   Power law exponent                               =    0.200
   Mean shear across rotor disk                     =    0.104 (m/s)/m
   Assumed rotor diameter                           =   30.000 m
   Surface roughness length                         =    0.030 m

   Number of time steps in the FFT                  =    12000
   Number of time steps output                      =     1149


Mean Flow Angles:

   Vertical   =   5.0 degrees
   Horizontal =  10.0 degrees

Mean Wind Speed Profile:

   Height    Wind Speed   Horizontal Angle  U-comp (X)   V-comp (Y)   W-comp (Z)
     (m)        (m/s)         (degrees)       (m/s)        (m/s)        (m/s)   
   ------    ----------   ----------------  ----------   ----------   ----------
     52.0       19.67           10.00         19.30         3.40         1.71
     44.5       19.07           10.00         18.71         3.30         1.66
     37.0       18.38           10.00         18.03         3.18         1.60
     29.5       17.56           10.00         17.23         3.04         1.53
     22.0       16.56           10.00         16.25         2.87         1.44


Harvested Random Seeds after Generation of the Random Numbers:

   1772867622 Harvested seed # 1
    170516282 Harvested seed # 2


Hub-Height Simulated Turbulence Statistical Summary:

   Type of Wind        Min (m/s)   Mean (m/s)    Max (m/s)  Sigma (m/s)       TI (%)
   ----------------    ---------   ----------    ---------  -----------       ------
   Longitudinal (u)         8.10        18.38        29.89        3.133       17.048
   Lateral (v)             -9.36         0.00         8.23        2.592       14.103
   Vertical (w)            -5.46         0.00         6.66        1.586        8.632
   U component              8.55        18.03        29.23        3.064       16.991
   V component             -6.44         3.18        12.69        2.658       14.742
   W component             -4.01         1.60         8.33        1.612        8.943
   Horizontal (U&V)         9.04        18.50        29.96        3.077       16.635
   Total                    9.30        18.64        29.98        3.083       16.545

                       Min Reynolds     Mean Reynolds    Max Reynolds    Correlation
   Product             Stress (m/s)^2   Stress (m/s)^2   Stress (m/s)^2  Coefficient
   ----------------    --------------   --------------   --------------  -----------
   u'w'                    -33.594             0.161            38.705         0.032
   u'v'                    -61.555             0.770            67.493         0.095
   v'w'                    -25.454             0.200            43.107         0.049


   Friction Velocity (Ustar)  =      0.401 m/s
   Maximum Instantaneous TKE  =     68.974 (m/s)^2
   Maximum Instantaneous CTKE =     34.708 (m/s)^2


Grid Point Variance Summary:

   Y-coord  -15.00   -7.50    0.00    7.50   15.00

   Height   Standard deviation at grid points for the u component:
    52.00    3.176   3.136   3.295   3.027   3.161
    44.50    3.140   3.071   3.192   3.179   3.067
    37.00    3.076   3.124   3.133   3.310   3.184
    29.50    3.229   3.080   3.217   3.194   3.064
    22.00    3.233   3.083   3.152   3.278   3.382

   Height   Standard deviation at grid points for the v component:
    52.00    2.592   2.592   2.592   2.592   2.592
    44.50    2.592   2.592   2.592   2.592   2.592
    37.00    2.592   2.592   2.592   2.592   2.592
    29.50    2.592   2.592   2.592   2.592   2.592
    22.00    2.592   2.592   2.592   2.592   2.592

   Height   Standard deviation at grid points for the w component:
    52.00    1.586   1.586   1.586   1.586   1.586
    44.50    1.586   1.586   1.586   1.586   1.586
    37.00    1.586   1.586   1.586   1.586   1.586
    29.50    1.586   1.586   1.586   1.586   1.586
    22.00    1.586   1.586   1.586   1.586   1.586

   Mean standard deviation across all grid points:
      u component:    3.167 m/s
      v component:    2.592 m/s
      w component:    1.586 m/s

Nyquist frequency of turbulent wind field =        10.000 Hz


Processing complete.  0.35938 CPU seconds used.
