
This summary file was generated by TurbSim (v1.08.00c-bjj, 10-Jul-2014) on 11-Jul-2014 at 09:32:01.


Runtime Options:

    123456  Random seed #1
    RANLUX  Type of random number generator
         F  Output binary HH turbulence parameters?
         F  Output formatted turbulence parameters?
         F  Output AeroDyn HH files?
         F  Output AeroDyn FF files?
         T  Output BLADED FF files?
         F  Output tower data?
         F  Output formatted FF files?
         T  Output coherent turbulence time step file?
         F  Clockwise rotation when looking downwind?
 0 -  NONE  IEC turbulence models scaled to exact specified standard deviation


Turbine/Model Specifications:

         5  Vertical grid-point matrix dimension
         5  Horizontal grid-point matrix dimension
     0.050  Time step [seconds]
   600.000  Analysis time [seconds]
   100.000  Usable output time [seconds]
    37.000  Hub height [m]
    50.000  Grid height [m]
    50.000  Grid width [m]
     0.000  Vertical flow angle [degrees]
     0.000  Horizontal flow angle [degrees]


Meteorological Boundary Conditions:

    NWTCUP  NREL National Wind Technology Center spectral model
       N/A  IEC standard
    KHTEST  Kelvin-Helmholtz billow test case
       N/A  IEC turbulence type
       N/A  IEC Extreme Turbulence Model (ETM) "c" parameter [m/s]
       IEC  Wind profile type
    37.000  Reference height [m]
    13.000  Reference wind speed [m/s]
       N/A  Jet height [m]
     0.300  Power law exponent
     0.021  Surface roughness length [m]


Non-IEC Meteorological Boundary Conditions:

    45.000  Site latitude [degrees]
     0.020  Gradient Richardson number
     0.729  Friction or shear velocity [m/s]
       N/A  Mixing layer depth [m]
    -0.576  Mean hub u'w' Reynolds stress
     2.685  Mean hub u'v' Reynolds stress
     0.221  Mean hub v'w' Reynolds stress
(   10.915, 0.263E-03)  u-component coherence parameters
(    8.569, 0.684E-03)  v-component coherence parameters
(    4.541, 0.533E-02)  w-component coherence parameters
     0.000  Coherence exponent


Coherent Turbulence Scaling Parameters:

.\EventData
            Name of the path containing the coherent turbulence data files
       les  Type of coherent turbulence data files
         F  Randomize the disturbance scale and location?
     1.000  Disturbance scale (ratio of wave height to rotor diameter)
     0.500  Fractional location of tower centerline from right
     0.500  Fractional location of hub height from the bottom of the dataset
     0.000  Minimum start time for coherent structures [seconds]


You have requested that the following file(s) be generated:

   KHtest.wnd (AeroDyn/BLADED full-field wnd file)
   KHtest.cts (AeroDyn coherent turbulence time step file)


Turbulence Simulation Scaling Parameter Summary:

   Turbulence model used                            =  NREL National Wind Technology Center
   Gradient Richardson number                       =    0.020
   Monin-Obukhov (M-O) z/L parameter                =    0.058
   Monin-Obukhov (M-O) length scale                 =  638.531 m
   Mean wind speed at hub height                    =   13.000 m/s

   Wind profile type                                =  Power law on rotor disk, logarithmic elsewhere
   Power law exponent                               =    0.300
   Mean shear across rotor disk                     =    0.118 (m/s)/m
   Assumed rotor diameter                           =   50.000 m
   Surface roughness length                         =    0.021 m

   Number of time steps in the FFT                  =    12000
   Number of time steps output                      =     2077

KH Billow Test Parameters:

   Gradient Richardson number                       =    0.020
   Power law exponent                               =    0.300
   Length of coherent structures                    =   50.000 s
   Minimum coherent TKE                             =   30.000 (m/s)^2


Mean Flow Angles:

   Vertical   =   0.0 degrees
   Horizontal =   0.0 degrees

Mean Wind Speed Profile:

   Height    Wind Speed   Horizontal Angle  U-comp (X)   V-comp (Y)   W-comp (Z)
     (m)        (m/s)         (degrees)       (m/s)        (m/s)        (m/s)   
   ------    ----------   ----------------  ----------   ----------   ----------
     62.0       15.18            0.00         15.18         0.00         0.00
     49.5       14.19            0.00         14.19         0.00         0.00
     37.0       13.00            0.00         13.00         0.00         0.00
     24.5       11.49            0.00         11.49         0.00         0.00
     12.0        9.27            0.00          9.27         0.00         0.00


Harvested Random Seeds after Generation of the Random Numbers:

      4181250 K1
            0 K2


Scaling statistics from the hub grid point:

   Cross-Component  Scaling Factor
   ---------------  --------------
   u'w'               -0.13931E+00
   u'v'                0.89638E+00
   v'w'                0.63232E+00


Hub-Height Simulated Turbulence Statistical Summary:

   Type of Wind        Min (m/s)   Mean (m/s)    Max (m/s)  Sigma (m/s)       TI (%)
   ----------------    ---------   ----------    ---------  -----------       ------
   Longitudinal (u)         5.54        13.00        19.34        1.832       14.091
   Lateral (v)             -7.84         0.00         9.00        2.520       19.383
   Vertical (w)            -3.64         0.00         3.54        1.003        7.716
   U component              5.54        13.00        19.34        1.832       14.091
   V component             -7.84         0.00         9.00        2.520       19.383
   W component             -3.64         0.00         3.54        1.003        7.716
   Horizontal (U&V)         7.22        13.25        21.06        1.808       13.646
   Total                    7.30        13.28        21.19        1.801       13.558

                       Min Reynolds     Mean Reynolds    Max Reynolds    Correlation
   Product             Stress (m/s)^2   Stress (m/s)^2   Stress (m/s)^2  Coefficient
   ----------------    --------------   --------------   --------------  -----------
   u'w'                    -20.049            -0.576             7.657        -0.313
   u'v'                     -9.640             2.685            54.379         0.582
   v'w'                    -24.308             0.221            17.154         0.088


   Friction Velocity (Ustar)  =      0.759 m/s
   Maximum Instantaneous TKE  =     61.398 (m/s)^2
   Maximum Instantaneous CTKE =     29.918 (m/s)^2


Grid Point Variance Summary:

   Y-coord  -25.00  -12.50    0.00   12.50   25.00

   Height   Standard deviation at grid points for the u component:
    62.00    1.814   1.745   1.618   1.432   1.472
    49.50    1.878   1.745   1.706   1.603   1.603
    37.00    1.927   1.780   1.832   1.628   1.703
    24.50    1.884   1.859   1.834   1.587   1.668
    12.00    2.021   2.010   2.020   1.823   1.815

   Height   Standard deviation at grid points for the v component:
    62.00    2.328   2.324   2.311   2.241   1.989
    49.50    2.365   2.260   2.334   2.372   2.320
    37.00    2.683   2.418   2.520   2.455   2.563
    24.50    2.793   2.732   2.568   2.530   2.602
    12.00    2.793   2.741   2.866   2.810   2.794

   Height   Standard deviation at grid points for the w component:
    62.00    1.063   1.069   1.022   1.032   1.054
    49.50    1.070   1.093   1.108   1.095   1.093
    37.00    1.079   1.050   1.003   1.016   1.050
    24.50    1.046   1.080   1.027   1.017   1.036
    12.00    1.045   1.008   1.040   1.026   1.048

   Mean standard deviation across all grid points:
      u component:    1.760 m/s
      v component:    2.508 m/s
      w component:    1.051 m/s


Number of coherent events            =        1
Predicted length of coherent events  =   50.000 seconds
Length of coherent events            =   68.466 seconds
Maximum predicted event CTKE         =   72.800 (m/s)^2


U-component (X) statistics from the hub grid point:

   Mean =  13.0000 m/s
   TI   =  14.0905 %


Normalizing Parameters for Binary Data (approximate statistics):

   UBar  =  13.0000 m/s
   TI(u) =  14.0905 %
   TI(v) =  19.3825 %
   TI(w) =   7.7164 %

   Height Offset =   0.0000 m
   Grid Base     =  12.0000 m

Creating a PERIODIC output file.

Nyquist frequency of turbulent wind field =        10.000 Hz
Nyquist frequency of coherent turbulent events =   28.050 Hz


Processing complete.  0.234 CPU seconds used.
