
This summary file was generated by TurbSim (v1.06.00, 21-Sep-2012) on 25-Sep-2012 at 13:53:52.


Runtime Options:

   4433456  Random seed #1
    RANLUX  Type of random number generator
         T  Output binary HH turbulence parameters?
         F  Output formatted turbulence parameters?
         F  Output AeroDyn HH files?
         F  Output AeroDyn FF files?
         T  Output BLADED FF files?
         F  Output tower data?
         F  Output formatted FF files?
         T  Output coherent turbulence time step file?
         F  Clockwise rotation when looking downwind?
 0 -  NONE  IEC turbulence models scaled to exact specified standard deviation


Turbine/Model Specifications:

         5  Vertical grid-point matrix dimension
         5  Horizontal grid-point matrix dimension
     0.050  Time step [seconds]
   600.000  Analysis time [seconds]
   100.000  Usable output time [seconds]
    84.000  Hub height [m]
    70.000  Grid height [m]
    70.000  Grid width [m]
     0.000  Vertical flow angle [degrees]
     0.000  Horizontal flow angle [degrees]


Meteorological Boundary Conditions:

    SMOOTH  RISO Smooth Terrain spectral model
       N/A  IEC standard
       N/A  IEC turbulence characteristic
       N/A  IEC turbulence type
       N/A  IEC Extreme Turbulence Model (ETM) "c" parameter [m/s]
       IEC  Wind profile type
    84.000  Reference height [m]
    17.000  Reference wind speed [m/s]
       N/A  Jet height [m]
     1.527  Power law exponent
     0.010  Surface roughness length [m]


Non-IEC Meteorological Boundary Conditions:

    45.000  Site latitude [degrees]
     0.050  Gradient Richardson number
     0.726  Friction or shear velocity [m/s]
       N/A  Mixing layer depth [m]
    -0.527  Mean hub u'w' Reynolds stress
       N/A  Mean hub u'v' Reynolds stress
       N/A  Mean hub v'w' Reynolds stress
(   17.000,  0.00    )  u-component coherence parameters
(   12.750,  0.00    )  v-component coherence parameters
(   12.750,  0.00    )  w-component coherence parameters
     0.000  Coherence exponent


Coherent Turbulence Scaling Parameters:

.\EventData
            Name of the path containing the coherent turbulence data files
       les  Type of coherent turbulence data files
         T  Randomize the disturbance scale and location?
     1.000  Disturbance scale (ratio of wave height to rotor diameter)
     0.500  Fractional location of tower centerline from right
     0.500  Fractional location of hub height from the bottom of the dataset
    10.000  Minimum start time for coherent structures [seconds]


You have requested that the following file(s) be generated:

   smooth.bin (hub-height binary turbulence-parameter file)
   smooth.wnd (AeroDyn/BLADED full-field wnd file)
   smooth.cts (AeroDyn coherent turbulence time step file)


Turbulence Simulation Scaling Parameter Summary:

   Turbulence model used                            =  RISO Smooth Terrain
   Gradient Richardson number                       =    0.050
   Monin-Obukhov (M-O) z/L parameter                =    0.067
   Monin-Obukhov (M-O) length scale                 = 1260.000 m
   Mean wind speed at hub height                    =   17.000 m/s

   Wind profile type                                =  Power law on rotor disk, logarithmic elsewhere
   Power law exponent                               =    1.527
   Mean shear across rotor disk                     =    0.307 (m/s)/m
   Assumed rotor diameter                           =   70.000 m
   Surface roughness length                         =    0.010 m

   Number of time steps in the FFT                  =    12000
   Number of time steps output                      =     2083


Mean Flow Angles:

   Vertical   =   0.0 degrees
   Horizontal =   0.0 degrees

Mean Wind Speed Profile:

   Height    Wind Speed   Horizontal Angle  U-comp (X)   V-comp (Y)   W-comp (Z)
     (m)        (m/s)         (degrees)       (m/s)        (m/s)        (m/s)   
   ------    ----------   ----------------  ----------   ----------   ----------
    119.0       28.94            0.00         28.94         0.00         0.00
    101.5       22.70            0.00         22.70         0.00         0.00
     84.0       17.00            0.00         17.00         0.00         0.00
     66.5       11.90            0.00         11.90         0.00         0.00
     49.0        7.46            0.00          7.46         0.00         0.00


Harvested Random Seeds after Generation of the Random Numbers:

      4181250 K1
            0 K2


Scaling statistics from the hub grid point:

   Cross-Component  Scaling Factor
   ---------------  --------------
   u'w'               -0.15068E+00
   u'v'                0.00000E+00
   v'w'                0.00000E+00


Hub-Height Simulated Turbulence Statistical Summary:

   Type of Wind        Min (m/s)   Mean (m/s)    Max (m/s)  Sigma (m/s)       TI (%)
   ----------------    ---------   ----------    ---------  -----------       ------
   Longitudinal (u)        11.61        17.00        22.75        1.740       10.237
   Lateral (v)             -5.79         0.00         5.45        1.417        8.335
   Vertical (w)            -3.24         0.00         4.46        1.128        6.633
   U component             11.61        17.00        22.75        1.740       10.237
   V component             -5.79         0.00         5.45        1.417        8.335
   W component             -3.24         0.00         4.46        1.128        6.633
   Horizontal (U&V)        11.62        17.06        22.90        1.733       10.156
   Total                   11.63        17.10        22.93        1.732       10.130

                       Min Reynolds     Mean Reynolds    Max Reynolds    Correlation
   Product             Stress (m/s)^2   Stress (m/s)^2   Stress (m/s)^2  Coefficient
   ----------------    --------------   --------------   --------------  -----------
   u'w'                    -12.999            -0.527            11.840        -0.268
   u'v'                    -17.125             0.472            15.154         0.191
   v'w'                    -11.249            -0.006             8.367        -0.004


   Friction Velocity (Ustar)  =      0.726 m/s
   Maximum Instantaneous TKE  =     20.624 (m/s)^2
   Maximum Instantaneous CTKE =      8.917 (m/s)^2


Grid Point Variance Summary:

   Y-coord  -35.00  -17.50    0.00   17.50   35.00

   Height   Standard deviation at grid points for the u component:
   119.00    1.835   1.811   1.812   1.866   1.760
   101.50    1.835   1.778   1.838   1.804   1.894
    84.00    1.735   1.847   1.740   1.795   1.731
    66.50    1.834   1.804   1.852   1.694   1.660
    49.00    1.841   1.701   1.671   1.939   1.964

   Height   Standard deviation at grid points for the v component:
   119.00    1.420   1.429   1.491   1.416   1.445
   101.50    1.467   1.435   1.403   1.443   1.475
    84.00    1.461   1.354   1.417   1.420   1.438
    66.50    1.490   1.453   1.408   1.377   1.472
    49.00    1.430   1.439   1.444   1.494   1.528

   Height   Standard deviation at grid points for the w component:
   119.00    1.143   1.153   1.182   1.134   1.136
   101.50    1.151   1.135   1.153   1.146   1.152
    84.00    1.160   1.189   1.128   1.162   1.127
    66.50    1.152   1.186   1.168   1.140   1.143
    49.00    1.155   1.213   1.140   1.207   1.182

   Mean standard deviation across all grid points:
      u component:    1.802 m/s
      v component:    1.442 m/s
      w component:    1.157 m/s


Average expected time between events =  138.282 seconds
Number of coherent events            =        1
Predicted length of coherent events  =    3.714 seconds
Length of coherent events            =    4.603 seconds
Maximum predicted event CTKE         =    8.645 (m/s)^2


U-component (X) statistics from the hub grid point:

   Mean =  17.0000 m/s
   TI   =  10.2370 %


Normalizing Parameters for Binary Data (approximate statistics):

   UBar  =  17.0000 m/s
   TI(u) =  10.2370 %
   TI(v) =   8.3351 %
   TI(w) =   6.6335 %

   Height Offset =   0.0000 m
   Grid Base     =  49.0000 m

Nyquist frequency of turbulent wind field =        10.000 Hz
Nyquist frequency of coherent turbulent events =   16.077 Hz


Processing complete.  0.2184 CPU seconds used.
