
This summary file was generated by TurbSim (v1.08.00c-bjj, 10-Jul-2014) on 08-Aug-2014 at 12:16:51.


Runtime Options:

   2318573  Random seed #1
    RANLUX  Type of random number generator
         F  Output binary HH turbulence parameters?
         F  Output formatted turbulence parameters?
         F  Output AeroDyn HH files?
         F  Output AeroDyn FF files?
         T  Output BLADED FF files?
         F  Output tower data?
         F  Output formatted FF files?
         F  Output coherent turbulence time step file?
         T  Clockwise rotation when looking downwind?
 0 -  NONE  IEC turbulence models scaled to exact specified standard deviation


Turbine/Model Specifications:

        13  Vertical grid-point matrix dimension
        13  Horizontal grid-point matrix dimension
     0.050  Time step [seconds]
   600.000  Analysis time [seconds]
   600.000  Usable output time [seconds]
    84.288  Hub height [m]
    80.000  Grid height [m]
    80.000  Grid width [m]
     0.000  Vertical flow angle [degrees]
     0.000  Horizontal flow angle [degrees]


Meteorological Boundary Conditions:

    USRVKM  von Karman model with user-defined specifications spectral model
       N/A  IEC standard
       N/A  IEC turbulence characteristic
       N/A  IEC turbulence type
       N/A  IEC Extreme Turbulence Model (ETM) "c" parameter [m/s]
       USR  Wind profile type
    84.288  Reference height [m]
       N/A  Reference wind speed [m/s]
       N/A  Jet height [m]
       N/A  Power law exponent
     0.030  Surface roughness length [m]


Non-IEC Meteorological Boundary Conditions:

    45.000  Site latitude [degrees]
     0.000  Gradient Richardson number
     0.353  Friction or shear velocity [m/s]
       N/A  Mixing layer depth [m]
    -0.124  Mean hub u'w' Reynolds stress
       N/A  Mean hub u'v' Reynolds stress
       N/A  Mean hub v'w' Reynolds stress
(    5.291, 0.330E-03)  u-component coherence parameters
(    3.489, 0.793E-03)  v-component coherence parameters
(    2.397, 0.506E-02)  w-component coherence parameters
     0.000  Coherence exponent


User-Defined profiles:

  Height   Wind Speed   Horizontal Angle   u Std. Dev.   v Std. Dev.   w Std. Dev.   Length Scale
    (m)        (m/s)          (deg)            (m/s)         (m/s)         (m/s)          (m)    
  ------   ----------   ----------------   -----------   -----------   -----------   ------------
   55.00       7.00           0.00             0.55          0.50          0.27           13.00
   45.00       6.00           0.00             0.11          0.10          0.05            9.00
   35.00       5.00           0.00             0.33          0.30          0.16            6.00
   25.00       4.00           0.00             0.22          0.20          0.11            4.00
   15.00       3.00           0.00             0.11          0.10          0.05            3.00


You have requested that the following file(s) be generated:

   UsrVkm.wnd (AeroDyn/BLADED full-field wnd file)


Turbulence Simulation Scaling Parameter Summary:

   Turbulence model used                            =  von Karman model with user-defined specifications
   Gradient Richardson number                       =    0.000
   Monin-Obukhov (M-O) z/L parameter                =    0.000
   Monin-Obukhov (M-O) length scale                 =  Infinite
   Mean wind speed at hub height                    =    7.000 m/s

   Wind profile type                                =  Linear interpolation of user-defined profile
   Equivalent power law exponent across rotor disk  =    0.161
   Mean shear across rotor disk                     =    0.013 (m/s)/m
   Assumed rotor diameter                           =   80.000 m
   Surface roughness length                         =    0.030 m

   Number of time steps in the FFT                  =    12236
   Number of time steps output                      =    12229


Mean Flow Angles:

   Vertical   =   0.0 degrees
   Horizontal =   0.0 degrees

Mean Wind Speed Profile:

   Height    Wind Speed   Horizontal Angle  U-comp (X)   V-comp (Y)   W-comp (Z)
     (m)        (m/s)         (degrees)       (m/s)        (m/s)        (m/s)   
   ------    ----------   ----------------  ----------   ----------   ----------
    124.3        7.00            0.00          7.00         0.00         0.00
    117.6        7.00            0.00          7.00         0.00         0.00
    111.0        7.00            0.00          7.00         0.00         0.00
    104.3        7.00            0.00          7.00         0.00         0.00
     97.6        7.00            0.00          7.00         0.00         0.00
     91.0        7.00            0.00          7.00         0.00         0.00
     84.3        7.00            0.00          7.00         0.00         0.00
     77.6        7.00            0.00          7.00         0.00         0.00
     71.0        7.00            0.00          7.00         0.00         0.00
     64.3        7.00            0.00          7.00         0.00         0.00
     57.6        7.00            0.00          7.00         0.00         0.00
     51.0        6.60            0.00          6.60         0.00         0.00
     44.3        5.93            0.00          5.93         0.00         0.00


Harvested Random Seeds after Generation of the Random Numbers:

     28820984 K1
            0 K2


Scaling statistics from the hub grid point:

   Cross-Component  Scaling Factor
   ---------------  --------------
   u'w'               -0.43377E+00
   u'v'                0.00000E+00
   v'w'                0.00000E+00


Hub-Height Simulated Turbulence Statistical Summary:

   Type of Wind        Min (m/s)   Mean (m/s)    Max (m/s)  Sigma (m/s)       TI (%)
   ----------------    ---------   ----------    ---------  -----------       ------
   Longitudinal (u)         4.93         7.00         9.10        0.540        7.711
   Lateral (v)             -1.99         0.00         1.82        0.514        7.345
   Vertical (w)            -1.26         0.00         1.38        0.344        4.914
   U component              4.93         7.00         9.10        0.540        7.711
   V component             -1.99         0.00         1.82        0.514        7.345
   W component             -1.26         0.00         1.38        0.344        4.914
   Horizontal (U&V)         4.93         7.02         9.10        0.539        7.673
   Total                    5.05         7.03         9.11        0.537        7.646

                       Min Reynolds     Mean Reynolds    Max Reynolds    Correlation
   Product             Stress (m/s)^2   Stress (m/s)^2   Stress (m/s)^2  Coefficient
   ----------------    --------------   --------------   --------------  -----------
   u'w'                     -2.380            -0.124             0.332        -0.670
   u'v'                     -2.002             0.021             2.319         0.074
   v'w'                     -0.983            -0.006             1.170        -0.034


   Friction Velocity (Ustar)  =      0.353 m/s
   Maximum Instantaneous TKE  =      2.757 (m/s)^2
   Maximum Instantaneous CTKE =      1.427 (m/s)^2


Grid Point Variance Summary:

   Y-coord  -40.00  -33.33  -26.67  -20.00  -13.33   -6.67    0.00    6.67   13.33   20.00   26.67   33.33   40.00

   Height   Standard deviation at grid points for the u component:
   124.29    0.561   0.564   0.561   0.534   0.522   0.535   0.545   0.529   0.540   0.537   0.545   0.533   0.542
   117.62    0.564   0.539   0.562   0.560   0.524   0.532   0.543   0.531   0.554   0.555   0.546   0.541   0.566
   110.95    0.555   0.538   0.560   0.561   0.544   0.527   0.531   0.539   0.549   0.527   0.546   0.546   0.566
   104.29    0.549   0.556   0.542   0.553   0.556   0.540   0.552   0.530   0.523   0.521   0.539   0.531   0.546
    97.62    0.555   0.558   0.545   0.556   0.572   0.539   0.556   0.556   0.547   0.505   0.514   0.520   0.534
    90.95    0.544   0.552   0.549   0.541   0.554   0.548   0.555   0.548   0.542   0.531   0.537   0.547   0.535
    84.29    0.553   0.537   0.544   0.547   0.522   0.525   0.540   0.547   0.543   0.536   0.544   0.541   0.540
    77.62    0.547   0.534   0.531   0.526   0.537   0.531   0.539   0.560   0.553   0.527   0.540   0.548   0.539
    70.95    0.540   0.547   0.531   0.533   0.528   0.528   0.533   0.549   0.537   0.535   0.520   0.532   0.533
    64.29    0.557   0.545   0.551   0.524   0.532   0.542   0.545   0.541   0.560   0.543   0.546   0.541   0.549
    57.62    0.568   0.564   0.550   0.534   0.552   0.561   0.527   0.544   0.528   0.551   0.546   0.553   0.539
    50.95    0.368   0.372   0.362   0.352   0.356   0.357   0.346   0.359   0.366   0.371   0.373   0.377   0.372
    44.29    0.123   0.127   0.125   0.118   0.120   0.118   0.118   0.116   0.120   0.124   0.125   0.127   0.127

   Height   Standard deviation at grid points for the v component:
   124.29    0.509   0.526   0.502   0.493   0.485   0.495   0.490   0.520   0.525   0.512   0.493   0.509   0.510
   117.62    0.521   0.516   0.515   0.506   0.487   0.491   0.494   0.513   0.512   0.524   0.521   0.504   0.497
   110.95    0.514   0.512   0.516   0.524   0.510   0.513   0.499   0.500   0.506   0.509   0.531   0.509   0.488
   104.29    0.507   0.509   0.520   0.518   0.519   0.521   0.515   0.518   0.511   0.509   0.489   0.509   0.497
    97.62    0.500   0.506   0.523   0.528   0.532   0.507   0.511   0.525   0.512   0.502   0.505   0.495   0.492
    90.95    0.510   0.500   0.514   0.520   0.515   0.504   0.510   0.498   0.517   0.521   0.517   0.511   0.491
    84.29    0.495   0.499   0.504   0.511   0.513   0.509   0.514   0.510   0.511   0.511   0.517   0.517   0.504
    77.62    0.490   0.487   0.485   0.487   0.495   0.509   0.490   0.500   0.509   0.501   0.508   0.510   0.514
    70.95    0.486   0.483   0.470   0.478   0.479   0.486   0.485   0.487   0.497   0.500   0.504   0.506   0.504
    64.29    0.482   0.473   0.474   0.488   0.481   0.476   0.475   0.492   0.495   0.499   0.508   0.480   0.489
    57.62    0.489   0.480   0.487   0.488   0.490   0.481   0.470   0.480   0.493   0.501   0.496   0.490   0.479
    50.95    0.333   0.330   0.341   0.332   0.338   0.338   0.327   0.338   0.330   0.339   0.345   0.338   0.329
    44.29    0.112   0.114   0.114   0.117   0.116   0.113   0.109   0.111   0.113   0.112   0.113   0.110   0.111

   Height   Standard deviation at grid points for the w component:
   124.29    0.363   0.356   0.358   0.345   0.335   0.335   0.349   0.343   0.363   0.350   0.350   0.351   0.352
   117.62    0.366   0.358   0.355   0.344   0.352   0.348   0.347   0.348   0.352   0.354   0.349   0.351   0.372
   110.95    0.354   0.352   0.348   0.346   0.335   0.348   0.345   0.354   0.351   0.342   0.353   0.353   0.368
   104.29    0.343   0.357   0.351   0.352   0.346   0.346   0.338   0.342   0.338   0.334   0.352   0.361   0.367
    97.62    0.348   0.353   0.354   0.349   0.357   0.345   0.356   0.346   0.353   0.337   0.346   0.360   0.359
    90.95    0.351   0.356   0.348   0.349   0.358   0.345   0.346   0.348   0.344   0.340   0.340   0.349   0.350
    84.29    0.351   0.360   0.351   0.350   0.334   0.338   0.344   0.351   0.350   0.341   0.348   0.348   0.344
    77.62    0.351   0.357   0.361   0.346   0.346   0.330   0.337   0.343   0.351   0.353   0.356   0.357   0.354
    70.95    0.347   0.360   0.366   0.359   0.351   0.352   0.354   0.356   0.349   0.355   0.344   0.344   0.346
    64.29    0.351   0.349   0.369   0.352   0.351   0.353   0.365   0.355   0.355   0.353   0.356   0.361   0.354
    57.62    0.365   0.373   0.364   0.357   0.349   0.353   0.355   0.357   0.352   0.372   0.362   0.372   0.358
    50.95    0.234   0.250   0.238   0.235   0.234   0.244   0.237   0.245   0.246   0.239   0.246   0.252   0.254
    44.29    0.077   0.083   0.081   0.080   0.078   0.079   0.079   0.080   0.079   0.081   0.082   0.085   0.087

   Mean standard deviation across all grid points:
      u component:    0.497 m/s
      v component:    0.459 m/s
      w component:    0.322 m/s


U-component (X) statistics from the hub grid point:

   Mean =   7.0000 m/s
   TI   =   7.7110 %


Normalizing Parameters for Binary Data (approximate statistics):

   UBar  =   7.0000 m/s
   TI(u) =   7.7110 %
   TI(v) =   7.3445 %
   TI(w) =   4.9138 %

   Height Offset =   0.0000 m
   Grid Base     =  44.2876 m

Creating a PERIODIC output file.

Nyquist frequency of turbulent wind field =        10.000 Hz


Processing complete.  7.8781 CPU seconds used.
