
This summary file was generated by TurbSim (v1.06.00, 21-Sep-2012) on 25-Sep-2012 at 13:53:51.


Runtime Options:

    123456  Random seed #1
    789012  Random seed #2
         F  Output binary HH turbulence parameters?
         T  Output formatted turbulence parameters?
         T  Output AeroDyn HH files?
         F  Output AeroDyn FF files?
         F  Output BLADED FF files?
         F  Output tower data?
         F  Output formatted FF files?
         F  Output coherent turbulence time step file?
         T  Clockwise rotation when looking downwind?
 0 -  NONE  IEC turbulence models scaled to exact specified standard deviation


Turbine/Model Specifications:

         5  Vertical grid-point matrix dimension
         5  Horizontal grid-point matrix dimension
     0.050  Time step [seconds]
   600.000  Analysis time [seconds]
    55.800  Usable output time [seconds]
    37.000  Hub height [m]
    30.000  Grid height [m]
    30.000  Grid width [m]
     5.000  Vertical flow angle [degrees]
    10.000  Horizontal flow angle [degrees]


Meteorological Boundary Conditions:

    IECVKM  IEC von Karman spectral model
         1  IEC standard: IEC 61400-1 Ed. 2: 1999
    16.000  Percent turbulence intensity, IEC 61400-1 Ed. 2: 1999
       NTM  IEC Normal Turbulence Model
       N/A  IEC Extreme Turbulence Model (ETM) "c" parameter [m/s]
       IEC  Wind profile type
    10.000  Reference height [m]
    15.000  Reference wind speed [m/s]
       N/A  Jet height [m]
     0.200  Power law exponent
     0.030  Surface roughness length [m]


You have requested that the following file(s) be generated:

   vonKarm_15.dat (formatted turbulence-parameter file)
   vonKarm_15.hh  (AeroDyn hub-height file)


Turbulence Simulation Scaling Parameter Summary:

   Turbulence model used                            =  IEC von Karman
   Turbulence characteristic                        =  User-specified
   IEC standard                                     =  IEC 61400-1 Ed. 2: 1999
   Mean wind speed at hub height                    =   18.378 m/s
   Characteristic value of standard deviation       =    2.941 m/s
   Turbulence scale                                 =   21.000 m
   Isotropic integral scale                         =   73.500 m
   Characteristic value of hub turbulence intensity =   16.000%
   Gradient Richardson number                       =    0.000

   Wind profile type                                =  Power law on rotor disk, logarithmic elsewhere
   Power law exponent                               =    0.200
   Mean shear across rotor disk                     =    0.104 (m/s)/m
   Assumed rotor diameter                           =   30.000 m
   Surface roughness length                         =    0.030 m

   Number of time steps in the FFT                  =    12000
   Number of time steps output                      =     1149


Mean Flow Angles:

   Vertical   =   5.0 degrees
   Horizontal =  10.0 degrees

Mean Wind Speed Profile:

   Height    Wind Speed   Horizontal Angle  U-comp (X)   V-comp (Y)   W-comp (Z)
     (m)        (m/s)         (degrees)       (m/s)        (m/s)        (m/s)   
   ------    ----------   ----------------  ----------   ----------   ----------
     52.0       19.67           10.00         19.30         3.40         1.71
     44.5       19.07           10.00         18.71         3.30         1.66
     37.0       18.38           10.00         18.03         3.18         1.60
     29.5       17.56           10.00         17.23         3.04         1.53
     22.0       16.56           10.00         16.25         2.87         1.44


Harvested Random Seeds after Generation of the Random Numbers:

   1772867622 Harvested seed # 1
    170516282 Harvested seed # 2


Hub-Height Simulated Turbulence Statistical Summary:

   Type of Wind        Min (m/s)   Mean (m/s)    Max (m/s)  Sigma (m/s)       TI (%)
   ----------------    ---------   ----------    ---------  -----------       ------
   Longitudinal (u)         9.17        18.38        29.35        2.868       15.605
   Lateral (v)            -10.45         0.00         8.81        2.897       15.765
   Vertical (w)            -9.64         0.00        10.91        2.897       15.765
   U component              8.73        18.03        28.66        2.813       15.604
   V component             -7.44         3.18        12.79        2.936       16.283
   W component             -8.17         1.60        12.32        2.912       16.150
   Horizontal (U&V)         9.82        18.54        29.55        2.814       15.174
   Total                   10.33        18.83        29.55        2.833       15.044

                       Min Reynolds     Mean Reynolds    Max Reynolds    Correlation
   Product             Stress (m/s)^2   Stress (m/s)^2   Stress (m/s)^2  Coefficient
   ----------------    --------------   --------------   --------------  -----------
   u'w'                    -57.739             0.496            65.128         0.060
   u'v'                    -60.906             0.748            64.968         0.090
   v'w'                    -42.088             0.733            64.603         0.087


   Friction Velocity (Ustar)  =      0.705 m/s
   Maximum Instantaneous TKE  =     72.612 (m/s)^2
   Maximum Instantaneous CTKE =     36.836 (m/s)^2


Grid Point Variance Summary:

   Y-coord  -15.00   -7.50    0.00    7.50   15.00

   Height   Standard deviation at grid points for the u component:
    52.00    2.877   2.870   2.960   2.753   2.858
    44.50    2.853   2.824   2.875   2.860   2.789
    37.00    2.777   2.863   2.868   2.985   2.844
    29.50    2.931   2.805   2.920   2.892   2.752
    22.00    2.897   2.780   2.885   2.951   3.052

   Height   Standard deviation at grid points for the v component:
    52.00    2.897   2.897   2.897   2.897   2.897
    44.50    2.897   2.897   2.897   2.897   2.897
    37.00    2.897   2.897   2.897   2.897   2.897
    29.50    2.897   2.897   2.897   2.897   2.897
    22.00    2.897   2.897   2.897   2.897   2.897

   Height   Standard deviation at grid points for the w component:
    52.00    2.897   2.897   2.897   2.897   2.897
    44.50    2.897   2.897   2.897   2.897   2.897
    37.00    2.897   2.897   2.897   2.897   2.897
    29.50    2.897   2.897   2.897   2.897   2.897
    22.00    2.897   2.897   2.897   2.897   2.897

   Mean standard deviation across all grid points:
      u component:    2.869 m/s
      v component:    2.897 m/s
      w component:    2.897 m/s

Nyquist frequency of turbulent wind field =        10.000 Hz


Processing complete.  0.1248 CPU seconds used.
