
This summary file was generated by TurbSim (v2.00.01a-bjj, 14-Oct-2014) on 14-Oct-2014 at 12:52:42.


Runtime Options:

      5185  Random seed #1
    RANLUX  Type of random number generator
         F  Output binary HH turbulence parameters?
         F  Output formatted turbulence parameters?
         F  Output AeroDyn HH files?
         F  Output AeroDyn FF files?
         T  Output BLADED FF files?
         F  Output tower data?
         T  Output formatted FF files?
         T  Output coherent turbulence time step file?
         T  Clockwise rotation when looking downwind?
 0 -  NONE  IEC turbulence models scaled to exact specified standard deviation


Turbine/Model Specifications:

        13  Vertical grid-point matrix dimension
        13  Horizontal grid-point matrix dimension
     0.050  Time step [seconds]
   600.000  Analysis time [seconds]
    75.000  Usable output time [seconds]
    84.288  Hub height [m]
    80.000  Grid height [m]
    80.000  Grid width [m]
     0.000  Vertical flow angle [degrees]
     0.000  Horizontal flow angle [degrees]


Meteorological Boundary Conditions:

    GP_LLJ  Great Plains Low-Level Jet spectral model
       N/A  IEC standard
       N/A  IEC turbulence characteristic
       N/A  IEC turbulence type
       N/A  IEC Extreme Turbulence Model (ETM) "c" parameter [m/s]
       JET  Wind profile type
    84.288  Reference height [m]
    13.500  Reference wind speed [m/s]
   400.000  Jet height [m]
       N/A  Power law exponent
     0.005  Surface roughness length [m]


Non-IEC Meteorological Boundary Conditions:

    45.000  Site latitude [degrees]
     0.150  Gradient Richardson number
     0.640  Friction or shear velocity [m/s]
  1034.333  Mixing layer depth [m]
    -0.476  Mean hub u'w' Reynolds stress
    -0.440  Mean hub u'v' Reynolds stress
     0.113  Mean hub v'w' Reynolds stress


Spatial Coherence Models:

   GENERAL  u-component coherence model
   GENERAL  v-component coherence model
   GENERAL  w-component coherence model
(    9.957, 0.486E-03)  u-component coherence parameters
(    6.949, 0.628E-03)  v-component coherence parameters
(    4.555, 0.438E-02)  w-component coherence parameters
     0.000  Coherence exponent


Coherent Turbulence Scaling Parameters:

Y:\Wind\Archive\Public\Projects\Projects G-R\KH_Billow\EventData
            Name of the path containing the coherent turbulence data files
       les  Type of coherent turbulence data files
     1.000  Disturbance scale (ratio of wave height to rotor diameter)
     0.500  Fractional location of tower centerline from right
     0.500  Fractional location of hub height from the bottom of the dataset
     0.000  Minimum start time for coherent structures [seconds]


You have requested that the following file(s) be generated:

   GPLLJ_Large.wnd (AeroDyn/BLADED full-field wnd file)
   GPLLJ_Large.cts (coherent turbulence time step file)
   GPLLJ_Large.u (formatted full-field U-component file)
   GPLLJ_Large.v (formatted full-field V-component file)
   GPLLJ_Large.w (formatted full-field W-component file)


Turbulence Simulation Scaling Parameter Summary:

   Turbulence model used                            =  Great Plains Low-Level Jet
   Gradient Richardson number                       =    0.150
   Monin-Obukhov (M-O) z/L parameter                =    1.000
   Monin-Obukhov (M-O) length scale                 =   84.288 m
   Mean wind speed at hub height                    =   13.500 m/s

   Wind profile type                                =  Low-level jet
   Jet height                                       =  400.000 m
   Jet wind speed                                   =   24.405 m/s
   Upper limit of observed jet wind speed           =   27.078 m/s
   Equivalent power law exponent across rotor disk  =    0.180
   Mean shear across rotor disk                     =    0.031 (m/s)/m
   Assumed rotor diameter                           =   80.000 m
   Surface roughness length                         =    0.005 m

   Nyquist frequency of turbulent wind field        =   10.000 Hz

   Number of time steps in the FFT                  =    12000
   Number of time steps output                      =     1619
   Number of points simulated                       =      169


Mean Flow Angles:

   Vertical   =   0.0 degrees
   Horizontal =   0.0 degrees

Mean Wind Speed Profile:

   Height    Wind Speed   Horizontal Angle  Vertical Angle  U-comp (X)   V-comp (Y)   W-comp (Z)   z/L(z)    u*(z)
     (m)        (m/s)         (degrees)       (degrees)       (m/s)        (m/s)        (m/s)       (-)      (m/s)
   ------    ----------   ----------------  --------------  ----------   ----------   ----------   ------   ------
    124.3       14.79            1.01            0.00         14.79         0.26         0.00       1.006    0.561
    117.6       14.55            0.93            0.00         14.55         0.24         0.00       1.005    0.579
    111.0       14.33            0.81            0.00         14.33         0.20         0.00       1.004    0.598
    104.3       14.11            0.64            0.00         14.11         0.16         0.00       1.003    0.620
     97.6       13.90            0.44            0.00         13.90         0.11         0.00       1.002    0.643
     91.0       13.70            0.22            0.00         13.70         0.05         0.00       1.001    0.667
     84.3       13.50            0.00            0.00         13.50         0.00         0.00       0.999    0.690
     77.6       13.31           -0.21            0.00         13.31        -0.05         0.00       0.998    0.712
     71.0       13.12           -0.40            0.00         13.12        -0.09         0.00       0.998    0.729
     64.3       12.94           -0.54            0.00         12.94        -0.12         0.00       0.997    0.736
     57.6       12.74           -0.63            0.00         12.74        -0.14         0.00       0.996    0.725
     51.0       12.53           -0.64            0.00         12.53        -0.14         0.00       0.994    0.679
     44.3       12.28           -0.59            0.00         12.28        -0.13         0.00       0.932    0.679


Harvested Random Seeds after Generation of the Random Numbers:

     28265250 K 1
            0 K 2


Scaling statistics from the hub grid point:

   Cross-Component  Scaling Factor
   ---------------  --------------
   u'w'               -0.21684E+00
   u'v'               -0.25061E+00
   v'w'               -0.60943E-01


Hub-Height Simulated Turbulence Statistical Summary:

   Type of Wind        Min (m/s)   Mean (m/s)    Max (m/s)  Sigma (m/s)       TI (%)
   ----------------    ---------   ----------    ---------  -----------       ------
   Longitudinal (u)         8.48        13.50        18.41        1.498       11.095
   Lateral (v)             -3.58         0.00         4.67        1.154        8.552
   Vertical (w)            -3.15         0.00         3.59        0.897        6.647
   U component              8.48        13.50        18.41        1.498       11.095
   V component             -3.58         0.00         4.67        1.154        8.552
   W component             -3.15         0.00         3.59        0.897        6.647
   Horizontal (U&V)         8.48        13.55        18.49        1.492       11.010
   Total                    8.48        13.58        18.58        1.488       10.958

                       Min Reynolds     Mean Reynolds    Max Reynolds    Correlation
   Product             Stress (m/s)^2   Stress (m/s)^2   Stress (m/s)^2  Coefficient
   ----------------    --------------   --------------   --------------  -----------
   u'w'                    -10.734            -0.476             6.132        -0.354
   u'v'                    -13.347            -0.440            11.955        -0.254
   v'w'                     -6.065             0.113             7.854         0.109


   Friction Velocity (Ustar)  =      0.690 m/s
   Maximum Instantaneous TKE  =     15.721 (m/s)^2
   Maximum Instantaneous CTKE =      8.763 (m/s)^2


Grid Point Variance Summary:

   Y-coord  -40.00  -33.33  -26.67  -20.00  -13.33   -6.67    0.00    6.67   13.33   20.00   26.67   33.33   40.00

   Height   Standard deviation at grid points for the u component:
   124.29    1.252   1.232   1.200   1.198   1.125   1.147   1.192   1.243   1.200   1.171   1.197   1.191   1.185
   117.62    1.272   1.256   1.295   1.249   1.216   1.262   1.189   1.301   1.323   1.310   1.236   1.262   1.258
   110.95    1.367   1.339   1.312   1.375   1.273   1.305   1.339   1.357   1.385   1.366   1.345   1.376   1.372
   104.29    1.349   1.306   1.369   1.340   1.423   1.379   1.331   1.401   1.418   1.359   1.384   1.382   1.406
    97.62    1.358   1.383   1.386   1.397   1.418   1.465   1.460   1.446   1.376   1.392   1.372   1.437   1.422
    90.95    1.393   1.391   1.343   1.445   1.425   1.479   1.501   1.501   1.441   1.394   1.469   1.505   1.445
    84.29    1.417   1.432   1.440   1.441   1.459   1.475   1.498   1.493   1.497   1.509   1.552   1.520   1.518
    77.62    1.523   1.486   1.477   1.471   1.495   1.605   1.564   1.491   1.522   1.584   1.596   1.555   1.518
    70.95    1.534   1.485   1.514   1.545   1.587   1.648   1.634   1.571   1.567   1.571   1.626   1.628   1.580
    64.29    1.591   1.498   1.528   1.544   1.619   1.597   1.649   1.656   1.611   1.641   1.590   1.650   1.671
    57.62    1.549   1.537   1.558   1.533   1.553   1.575   1.555   1.635   1.638   1.651   1.580   1.619   1.603
    50.95    1.516   1.579   1.454   1.492   1.482   1.512   1.485   1.514   1.530   1.544   1.573   1.517   1.575
    44.29    1.490   1.495   1.500   1.436   1.463   1.544   1.553   1.572   1.588   1.547   1.537   1.527   1.556

   Height   Standard deviation at grid points for the v component:
   124.29    1.003   1.016   1.046   1.060   1.053   1.021   1.052   1.054   1.013   1.041   1.097   1.056   1.073
   117.62    1.067   1.041   1.088   1.052   1.072   1.077   1.051   1.043   1.032   1.048   1.110   1.082   1.094
   110.95    1.114   1.059   1.051   1.060   1.070   1.090   1.089   1.070   1.057   1.090   1.102   1.124   1.140
   104.29    1.153   1.145   1.101   1.088   1.084   1.132   1.114   1.116   1.131   1.144   1.131   1.119   1.151
    97.62    1.178   1.157   1.100   1.081   1.129   1.137   1.177   1.185   1.206   1.187   1.163   1.160   1.160
    90.95    1.224   1.207   1.130   1.108   1.122   1.147   1.156   1.170   1.155   1.203   1.163   1.225   1.187
    84.29    1.251   1.226   1.204   1.191   1.177   1.146   1.154   1.192   1.214   1.202   1.183   1.256   1.262
    77.62    1.229   1.241   1.233   1.214   1.212   1.208   1.180   1.224   1.210   1.227   1.234   1.262   1.239
    70.95    1.256   1.270   1.267   1.249   1.223   1.184   1.231   1.234   1.242   1.256   1.231   1.291   1.231
    64.29    1.248   1.257   1.247   1.260   1.239   1.204   1.251   1.236   1.263   1.270   1.247   1.285   1.246
    57.62    1.233   1.251   1.253   1.207   1.218   1.193   1.193   1.224   1.221   1.247   1.221   1.238   1.223
    50.95    1.193   1.209   1.211   1.192   1.210   1.173   1.176   1.189   1.172   1.208   1.228   1.172   1.201
    44.29    1.212   1.227   1.210   1.205   1.224   1.170   1.156   1.181   1.149   1.177   1.174   1.176   1.198

   Height   Standard deviation at grid points for the w component:
   124.29    0.754   0.756   0.736   0.730   0.742   0.727   0.731   0.736   0.734   0.726   0.731   0.719   0.733
   117.62    0.798   0.791   0.783   0.766   0.772   0.787   0.778   0.744   0.760   0.763   0.760   0.760   0.739
   110.95    0.808   0.797   0.810   0.804   0.796   0.797   0.770   0.794   0.804   0.792   0.787   0.795   0.759
   104.29    0.824   0.811   0.813   0.811   0.841   0.802   0.810   0.816   0.796   0.812   0.812   0.827   0.803
    97.62    0.832   0.832   0.830   0.844   0.843   0.842   0.847   0.847   0.833   0.830   0.825   0.828   0.852
    90.95    0.889   0.875   0.864   0.851   0.863   0.865   0.866   0.858   0.846   0.884   0.875   0.885   0.888
    84.29    0.906   0.883   0.906   0.888   0.898   0.878   0.897   0.861   0.863   0.908   0.931   0.926   0.927
    77.62    0.921   0.918   0.917   0.925   0.941   0.938   0.941   0.926   0.916   0.914   0.963   0.946   0.939
    70.95    0.926   0.917   0.930   0.915   0.930   0.923   0.947   0.944   0.934   0.918   0.958   0.962   0.978
    64.29    0.923   0.921   0.913   0.932   0.924   0.957   0.967   0.968   0.966   0.968   0.975   0.966   0.969
    57.62    0.910   0.914   0.935   0.924   0.910   0.949   0.935   0.961   0.952   0.954   0.939   0.957   0.928
    50.95    0.882   0.902   0.880   0.870   0.862   0.866   0.868   0.904   0.883   0.889   0.906   0.908   0.919
    44.29    0.889   0.892   0.874   0.858   0.871   0.879   0.889   0.887   0.906   0.921   0.902   0.895   0.906

   Mean standard deviation across all grid points:
      u component:    1.450 m/s
      v component:    1.167 m/s
      w component:    0.865 m/s


Average expected time between events =  210.357 seconds
Number of coherent events            =        1
Predicted length of coherent events  =    2.571 seconds
Length of coherent events            =    9.009 seconds
Maximum predicted event CTKE         =    5.650 (m/s)^2
Nyquist frequency of coherent events =    5.328 Hz


U-component (X) statistics from the interpolated hub point:

   Mean =  13.5000 m/s
   TI   =  11.0945 %


Normalizing Parameters for Binary Data (approximate statistics):

   UBar  =  13.5000 m/s
   TI(u) =  11.0945 %
   TI(v) =   8.5517 %
   TI(w) =   6.6471 %

   Height Offset =   0.0000 m
   Grid Base     =  44.2876 m

Creating a PERIODIC output file.


Processing complete.  10.686 CPU seconds used.
