
This summary file was generated by TurbSim (v2.00.00a-bjj, 9-Oct-2014) on 09-Oct-2014 at 17:21:24.


Runtime Options:

    234516  Random seed #1
    789012  Random seed #2
         F  Output binary HH turbulence parameters?
         T  Output formatted turbulence parameters?
         F  Output AeroDyn HH files?
         T  Output AeroDyn FF files?
         F  Output BLADED FF files?
         F  Output tower data?
         F  Output formatted FF files?
         T  Output coherent turbulence time step file?
         T  Clockwise rotation when looking downwind?
 0 -  NONE  IEC turbulence models scaled to exact specified standard deviation


Turbine/Model Specifications:

         5  Vertical grid-point matrix dimension
         5  Horizontal grid-point matrix dimension
     0.050  Time step [seconds]
   600.000  Analysis time [seconds]
    90.000  Usable output time [seconds]
    90.000  Hub height [m]
    80.000  Grid height [m]
    80.000  Grid width [m]
     0.000  Vertical flow angle [degrees]
     0.000  Horizontal flow angle [degrees]


Meteorological Boundary Conditions:

    GP_LLJ  Great Plains Low-Level Jet spectral model
       N/A  IEC standard
       N/A  IEC turbulence characteristic
       N/A  IEC turbulence type
       N/A  IEC Extreme Turbulence Model (ETM) "c" parameter [m/s]
       JET  Wind profile type
    85.000  Reference height [m]
    12.000  Reference wind speed [m/s]
   350.000  Jet height [m]
       N/A  Power law exponent
     0.005  Surface roughness length [m]


Non-IEC Meteorological Boundary Conditions:

    45.000  Site latitude [degrees]
     0.050  Gradient Richardson number
     0.410  Friction or shear velocity [m/s]
  1134.631  Mixing layer depth [m]
    -0.183  Mean hub u'w' Reynolds stress
     0.187  Mean hub u'v' Reynolds stress
     0.051  Mean hub v'w' Reynolds stress


Spatial Coherence Models:

   GENERAL  u-component coherence model
   GENERAL  v-component coherence model
   GENERAL  w-component coherence model
(    9.672, 0.633E-03)  u-component coherence parameters
(    6.636, 0.153E-02)  v-component coherence parameters
(    4.496, 0.695E-02)  w-component coherence parameters
     0.000  Coherence exponent


Coherent Turbulence Scaling Parameters:

.\EventData
            Name of the path containing the coherent turbulence data files
       LES  Type of coherent turbulence data files
     1.000  Disturbance scale (ratio of wave height to rotor diameter)
     0.500  Fractional location of tower centerline from right
     0.500  Fractional location of hub height from the bottom of the dataset
    30.000  Minimum start time for coherent structures [seconds]


You have requested that the following file(s) be generated:

   GPLLJ.dat (formatted turbulence-parameter file)
   GPLLJ.bts (AeroDyn/TurbSim full-field wind file)
   GPLLJ.cts (coherent turbulence time step file)


Turbulence Simulation Scaling Parameter Summary:

   Turbulence model used                            =  Great Plains Low-Level Jet
   Gradient Richardson number                       =    0.050
   Monin-Obukhov (M-O) z/L parameter                =    0.237
   Monin-Obukhov (M-O) length scale                 =  380.402 m
   Mean wind speed at hub height                    =   12.177 m/s

   Wind profile type                                =  Low-level jet
   Jet height                                       =  350.000 m
   Jet wind speed                                   =   21.112 m/s
   Upper limit of observed jet wind speed           =   24.968 m/s
   Equivalent power law exponent across rotor disk  =    0.253
   Mean shear across rotor disk                     =    0.037 (m/s)/m
   Assumed rotor diameter                           =   80.000 m
   Surface roughness length                         =    0.005 m

   Nyquist frequency of turbulent wind field        =   10.000 Hz

   Number of time steps in the FFT                  =    12000
   Number of time steps output                      =     1932


Mean Flow Angles:

   Vertical   =   0.0 degrees
   Horizontal =   0.0 degrees

Mean Wind Speed Profile:

   Height    Wind Speed   Horizontal Angle  Vertical Angle  U-comp (X)   V-comp (Y)   W-comp (Z)   z/L(z)    u*(z)
     (m)        (m/s)         (degrees)       (degrees)       (m/s)        (m/s)        (m/s)       (-)      (m/s)
   ------    ----------   ----------------  --------------  ----------   ----------   ----------   ------   ------
    130.0       13.88            0.08            0.00         13.88         0.02         0.00       0.245    0.368
    110.0       12.97            0.25            0.00         12.97         0.06         0.00       0.240    0.390
     90.0       12.18            0.00            0.00         12.18         0.00         0.00       0.236    0.428
     70.0       11.52           -0.48            0.00         11.52        -0.10         0.00       0.232    0.472
     50.0       10.90           -0.68            0.00         10.90        -0.13         0.00       0.229    0.433


Harvested Random Seeds after Generation of the Random Numbers:

   1117125210 Harvested seed # 1
    170516282 Harvested seed # 2


Scaling statistics from the hub grid point:

   Cross-Component  Scaling Factor
   ---------------  --------------
   u'w'               -0.19728E+00
   u'v'                0.38253E+00
   v'w'                0.28348E+00


Hub-Height Simulated Turbulence Statistical Summary:

   Type of Wind        Min (m/s)   Mean (m/s)    Max (m/s)  Sigma (m/s)       TI (%)
   ----------------    ---------   ----------    ---------  -----------       ------
   Longitudinal (u)         9.72        12.18        15.31        0.845        6.939
   Lateral (v)             -2.50         0.00         2.65        0.784        6.441
   Vertical (w)            -2.19         0.00         2.49        0.638        5.238
   U component              9.72        12.18        15.31        0.845        6.939
   V component             -2.50         0.00         2.65        0.784        6.441
   W component             -2.19         0.00         2.49        0.638        5.238
   Horizontal (U&V)         9.78        12.20        15.33        0.844        6.917
   Total                    9.86        12.22        15.35        0.841        6.882

                       Min Reynolds     Mean Reynolds    Max Reynolds    Correlation
   Product             Stress (m/s)^2   Stress (m/s)^2   Stress (m/s)^2  Coefficient
   ----------------    --------------   --------------   --------------  -----------
   u'w'                     -4.300            -0.183             2.503        -0.340
   u'v'                     -2.506             0.187             4.496         0.282
   v'w'                     -3.202             0.051             3.610         0.103


   Friction Velocity (Ustar)  =      0.428 m/s
   Maximum Instantaneous TKE  =      5.553 (m/s)^2
   Maximum Instantaneous CTKE =      2.685 (m/s)^2


Grid Point Variance Summary:

   Y-coord  -40.00  -20.00    0.00   20.00   40.00

   Height   Standard deviation at grid points for the u component:
   130.00    0.818   0.779   0.658   0.679   0.754
   110.00    0.807   0.792   0.736   0.795   0.756
    90.00    0.797   0.783   0.845   0.947   0.911
    70.00    0.909   0.909   0.980   1.000   1.049
    50.00    0.936   0.922   0.959   0.858   0.936

   Height   Standard deviation at grid points for the v component:
   130.00    0.751   0.768   0.708   0.666   0.663
   110.00    0.802   0.761   0.765   0.754   0.724
    90.00    0.800   0.814   0.784   0.810   0.790
    70.00    0.910   0.894   0.846   0.870   0.893
    50.00    0.795   0.812   0.840   0.788   0.834

   Height   Standard deviation at grid points for the w component:
   130.00    0.497   0.524   0.503   0.539   0.522
   110.00    0.552   0.540   0.550   0.556   0.546
    90.00    0.590   0.598   0.638   0.657   0.640
    70.00    0.656   0.643   0.664   0.652   0.679
    50.00    0.608   0.613   0.627   0.610   0.612

   Mean standard deviation across all grid points:
      u component:    0.853 m/s
      v component:    0.794 m/s
      w component:    0.593 m/s


Average expected time between events =  248.914 seconds
Number of coherent events            =        0
Predicted length of coherent events  =    3.284 seconds
Length of coherent events            =    0.000 seconds
Maximum predicted event CTKE         =    5.538 (m/s)^2


U-component (X) statistics from the interpolated hub point:

   Mean =  12.1770 m/s
   TI   =   6.9394 %


Processing complete.  0.1872 CPU seconds used.
