
This summary file was generated by TurbSim (v1.08.01a-bjj, 4-Sep-2014) on 04-Sep-2014 at 11:03:52.


Runtime Options:

   2318573  Random seed #1
    RANLUX  Type of random number generator
         F  Output binary HH turbulence parameters?
         T  Output formatted turbulence parameters?
         T  Output AeroDyn HH files?
         F  Output AeroDyn FF files?
         T  Output BLADED FF files?
         F  Output tower data?
         F  Output formatted FF files?
         F  Output coherent turbulence time step file?
         T  Clockwise rotation when looking downwind?
 0 -  NONE  IEC turbulence models scaled to exact specified standard deviation


Turbine/Model Specifications:

         5  Vertical grid-point matrix dimension
         5  Horizontal grid-point matrix dimension
     0.050  Time step [seconds]
   600.000  Analysis time [seconds]
    40.000  Usable output time [seconds]
    10.000  Hub height [m]
     9.000  Grid height [m]
     9.000  Grid width [m]
     0.000  Vertical flow angle [degrees]
     0.000  Horizontal flow angle [degrees]


Meteorological Boundary Conditions:

    TIDAL   Tidal Channel Turbulence spectral model
       N/A  IEC standard
       N/A  IEC turbulence characteristic
       N/A  IEC turbulence type
       N/A  IEC Extreme Turbulence Model (ETM) "c" parameter [m/s]
       H2L  Wind profile type
    18.000  Reference height [m]
     1.200  Reference wind speed [m/s]
       N/A  Jet height [m]
       N/A  Power law exponent
       N/A  Surface roughness length [m]


Non-IEC Meteorological Boundary Conditions:

    45.000  Site latitude [degrees]
       N/A  Gradient Richardson number
     0.060  Friction or shear velocity [m/s]
       N/A  Mixing layer depth [m]
    -0.002  Mean hub u'w' Reynolds stress
       N/A  Mean hub u'v' Reynolds stress
       N/A  Mean hub v'w' Reynolds stress
(    1.114,  0.00    )  u-component coherence parameters
(    0.835,  0.00    )  v-component coherence parameters
(    0.835,  0.00    )  w-component coherence parameters
     0.000  Coherence exponent


You have requested that the following file(s) be generated:

   HYDRO_TIDAL.dat (formatted turbulence-parameter file)
   HYDRO_TIDAL.hh  (AeroDyn hub-height file)
   HYDRO_TIDAL.wnd (AeroDyn/BLADED full-field wnd file)


Turbulence Simulation Scaling Parameter Summary:

   Turbulence model used                            =  Tidal Channel Turbulence
   Gradient Richardson number                       =  N/A
   Mean velocity at hub height                      =    1.114 m/s

   Velocity profile type                            =  Logarithmic (H2L)
   Equivalent power law exponent across rotor disk  =    0.134
   Mean shear across rotor disk                     =    0.016 (m/s)/m
   Assumed rotor diameter                           =    9.000 m
   Surface roughness length                         =    0.030 m

   Number of time steps in the FFT                  =    12000
   Number of time steps output                      =      962


Mean Flow Angles:

   Vertical   =   0.0 degrees
   Horizontal =   0.0 degrees

Mean Wind Speed Profile:

   Height    Wind Speed   Horizontal Angle  U-comp (X)   V-comp (Y)   W-comp (Z)
     (m)        (m/s)         (degrees)       (m/s)        (m/s)        (m/s)   
   ------    ----------   ----------------  ----------   ----------   ----------
     14.5        1.17            0.00          1.17         0.00         0.00
     12.2        1.14            0.00          1.14         0.00         0.00
     10.0        1.11            0.00          1.11         0.00         0.00
      7.8        1.08            0.00          1.08         0.00         0.00
      5.5        1.03            0.00          1.03         0.00         0.00


Harvested Random Seeds after Generation of the Random Numbers:

      4181250 K1
            0 K2


Scaling statistics from the hub grid point:

   Cross-Component  Scaling Factor
   ---------------  --------------
   u'w'               -0.18782E+00
   u'v'                0.00000E+00
   v'w'                0.00000E+00


Hub-Height Simulated Turbulence Statistical Summary:

   Type of Wind        Min (m/s)   Mean (m/s)    Max (m/s)  Sigma (m/s)       TI (%)
   ----------------    ---------   ----------    ---------  -----------       ------
   Longitudinal (u)         0.89         1.11         1.33        0.079        7.054
   Lateral (v)             -0.18         0.00         0.18        0.054        4.808
   Vertical (w)            -0.12         0.00         0.15        0.038        3.450
   U component              0.89         1.11         1.33        0.079        7.054
   V component             -0.18         0.00         0.18        0.054        4.808
   W component             -0.12         0.00         0.15        0.038        3.450
   Horizontal (U&V)         0.89         1.12         1.33        0.079        7.048
   Total                    0.89         1.12         1.33        0.078        7.032

                       Min Reynolds     Mean Reynolds    Max Reynolds    Correlation
   Product             Stress (m/s)^2   Stress (m/s)^2   Stress (m/s)^2  Coefficient
   ----------------    --------------   --------------   --------------  -----------
   u'w'                     -0.023            -0.002             0.008        -0.530
   u'v'                     -0.024             0.000             0.027         0.006
   v'w'                     -0.015             0.000             0.010         0.025


   Friction Velocity (Ustar)  =      0.040 m/s
   Maximum Instantaneous TKE  =      0.030 (m/s)^2
   Maximum Instantaneous CTKE =      0.015 (m/s)^2


Grid Point Variance Summary:

   Y-coord   -4.50   -2.25    0.00    2.25    4.50

   Height   Standard deviation at grid points for the u component:
    14.50    0.069   0.068   0.066   0.066   0.065
    12.25    0.074   0.073   0.073   0.074   0.072
    10.00    0.081   0.081   0.079   0.077   0.078
     7.75    0.087   0.087   0.085   0.084   0.087
     5.50    0.091   0.090   0.093   0.091   0.091

   Height   Standard deviation at grid points for the v component:
    14.50    0.047   0.048   0.048   0.047   0.046
    12.25    0.050   0.051   0.050   0.050   0.049
    10.00    0.053   0.055   0.054   0.054   0.052
     7.75    0.059   0.058   0.058   0.058   0.056
     5.50    0.065   0.063   0.064   0.062   0.062

   Height   Standard deviation at grid points for the w component:
    14.50    0.031   0.032   0.032   0.032   0.032
    12.25    0.035   0.035   0.035   0.036   0.035
    10.00    0.039   0.038   0.038   0.039   0.039
     7.75    0.043   0.042   0.042   0.043   0.043
     5.50    0.047   0.046   0.046   0.047   0.047

   Mean standard deviation across all grid points:
      u component:    0.079 m/s
      v component:    0.054 m/s
      w component:    0.039 m/s


U-component (X) statistics from the hub grid point:

   Mean =   1.1140 m/s
   TI   =   7.0537 %


Normalizing Parameters for Binary Data (approximate statistics):

   UBar  =   1.1140 m/s
   TI(u) =   7.0537 %
   TI(v) =   4.8077 %
   TI(w) =   3.4502 %

   Height Offset =   0.0000 m
   Grid Base     =   5.5000 m

Creating a PERIODIC output file.

Nyquist frequency of turbulent wind field =        10.000 Hz


Processing complete.  0.2652 CPU seconds used.
