
This summary file was generated by TurbSim (v1.08.01a-bjj, 4-Sep-2014) on 04-Sep-2014 at 11:04:04.


Runtime Options:

   2318573  Random seed #1
    RANLUX  Type of random number generator
         F  Output binary HH turbulence parameters?
         F  Output formatted turbulence parameters?
         F  Output AeroDyn HH files?
         F  Output AeroDyn FF files?
         T  Output BLADED FF files?
         F  Output tower data?
         T  Output formatted FF files?
         F  Output coherent turbulence time step file?
         T  Clockwise rotation when looking downwind?
 0 -  NONE  IEC turbulence models scaled to exact specified standard deviation


Turbine/Model Specifications:

        13  Vertical grid-point matrix dimension
        13  Horizontal grid-point matrix dimension
     0.050  Time step [seconds]
   600.000  Analysis time [seconds]
     5.000  Usable output time [seconds]
    84.288  Hub height [m]
    80.000  Grid height [m]
    80.000  Grid width [m]
     0.000  Vertical flow angle [degrees]
     0.000  Horizontal flow angle [degrees]


Meteorological Boundary Conditions:

    IECKAI  IEC Kaimal spectral model
         2  IEC standard: IEC 61400-2 Ed. 2: 2005
         A  IEC turbulence characteristic
       NTM  IEC Normal Turbulence Model
       N/A  IEC Extreme Turbulence Model (ETM) "c" parameter [m/s]
       IEC  Wind profile type
    84.288  Reference height [m]
    15.000  Reference wind speed [m/s]
       N/A  Jet height [m]
     0.200  Power law exponent
     0.030  Surface roughness length [m]


You have requested that the following file(s) be generated:

   IECKAI_Large.wnd (AeroDyn/BLADED full-field wnd file)
   IECKAI_Large.u (formatted full-field U-component file)
   IECKAI_Large.v (formatted full-field V-component file)
   IECKAI_Large.w (formatted full-field W-component file)


Turbulence Simulation Scaling Parameter Summary:

   Turbulence model used                            =  IEC Kaimal
   Turbulence characteristic                        =  A
   IEC turbulence type                              =  Normal Turbulence Model
   IEC standard                                     =  IEC 61400-2 Ed. 2: 2005
   Mean wind speed at hub height                    =   15.000 m/s
   Char value of turbulence intensity at 15 m/s     =   18.000%
   Standard deviation slope                         =    2.000
   Characteristic value of standard deviation       =    2.700 m/s
   Turbulence scale                                 =   21.000 m
   u-component integral scale                       =  170.100 m
   Coherency scale                                  =   73.500 m
   Characteristic value of hub turbulence intensity =   18.000%
   Gradient Richardson number                       =    0.000

   Wind profile type                                =  Power law on rotor disk, logarithmic elsewhere
   Power law exponent                               =    0.200
   Mean shear across rotor disk                     =    0.038 (m/s)/m
   Assumed rotor diameter                           =   80.000 m
   Surface roughness length                         =    0.030 m

   Number of time steps in the FFT                  =    12000
   Number of time steps output                      =      207


Mean Flow Angles:

   Vertical   =   0.0 degrees
   Horizontal =   0.0 degrees

Mean Wind Speed Profile:

   Height    Wind Speed   Horizontal Angle  U-comp (X)   V-comp (Y)   W-comp (Z)
     (m)        (m/s)         (degrees)       (m/s)        (m/s)        (m/s)   
   ------    ----------   ----------------  ----------   ----------   ----------
    124.3       16.21            0.00         16.21         0.00         0.00
    117.6       16.03            0.00         16.03         0.00         0.00
    111.0       15.85            0.00         15.85         0.00         0.00
    104.3       15.65            0.00         15.65         0.00         0.00
     97.6       15.45            0.00         15.45         0.00         0.00
     91.0       15.23            0.00         15.23         0.00         0.00
     84.3       15.00            0.00         15.00         0.00         0.00
     77.6       14.75            0.00         14.75         0.00         0.00
     71.0       14.49            0.00         14.49         0.00         0.00
     64.3       14.21            0.00         14.21         0.00         0.00
     57.6       13.90            0.00         13.90         0.00         0.00
     51.0       13.56            0.00         13.56         0.00         0.00
     44.3       13.19            0.00         13.19         0.00         0.00


Harvested Random Seeds after Generation of the Random Numbers:

     28265250 K1
            0 K2


Hub-Height Simulated Turbulence Statistical Summary:

   Type of Wind        Min (m/s)   Mean (m/s)    Max (m/s)  Sigma (m/s)       TI (%)
   ----------------    ---------   ----------    ---------  -----------       ------
   Longitudinal (u)         6.74        15.00        23.83        2.566       17.106
   Lateral (v)             -6.62         0.00         7.57        2.117       14.114
   Vertical (w)            -4.87         0.00         5.12        1.301        8.674
   U component              6.74        15.00        23.83        2.566       17.106
   V component             -6.62         0.00         7.57        2.117       14.114
   W component             -4.87         0.00         5.12        1.301        8.674
   Horizontal (U&V)         6.81        15.15        23.83        2.535       16.726
   Total                    7.14        15.21        23.86        2.528       16.623

                       Min Reynolds     Mean Reynolds    Max Reynolds    Correlation
   Product             Stress (m/s)^2   Stress (m/s)^2   Stress (m/s)^2  Coefficient
   ----------------    --------------   --------------   --------------  -----------
   u'w'                    -25.797            -0.010            19.217        -0.003
   u'v'                    -30.502            -0.215            27.527        -0.039
   v'w'                    -19.740             0.032            17.513         0.012


   Friction Velocity (Ustar)  =      0.102 m/s
   Maximum Instantaneous TKE  =     39.789 (m/s)^2
   Maximum Instantaneous CTKE =     15.783 (m/s)^2


Grid Point Variance Summary:

   Y-coord  -40.00  -33.33  -26.67  -20.00  -13.33   -6.67    0.00    6.67   13.33   20.00   26.67   33.33   40.00

   Height   Standard deviation at grid points for the u component:
   124.29    2.556   2.570   2.535   2.451   2.535   2.552   2.774   2.697   2.590   2.658   2.706   2.676   2.854
   117.62    2.501   2.651   2.528   2.561   2.537   2.621   2.555   2.495   2.672   2.561   2.557   2.591   2.673
   110.95    2.619   2.498   2.597   2.335   2.594   2.533   2.630   2.554   2.650   2.602   2.506   2.637   2.600
   104.29    2.621   2.620   2.642   2.533   2.479   2.451   2.497   2.516   2.795   2.710   2.696   2.641   2.670
    97.62    2.629   2.620   2.692   2.492   2.439   2.399   2.395   2.561   2.640   2.588   2.677   2.776   2.735
    90.95    2.697   2.649   2.669   2.679   2.506   2.449   2.344   2.660   2.803   2.604   2.679   2.828   2.711
    84.29    2.591   2.704   2.715   2.680   2.601   2.517   2.566   2.716   2.679   2.741   2.442   2.613   2.968
    77.62    2.559   2.656   2.660   2.679   2.669   2.734   2.862   2.898   2.848   2.811   2.758   2.672   2.753
    70.95    2.607   2.536   2.494   2.683   2.506   2.746   2.760   2.791   2.816   2.968   2.833   2.775   2.685
    64.29    2.592   2.521   2.584   2.508   2.519   2.574   2.490   2.719   2.905   2.884   2.724   2.637   2.543
    57.62    2.549   2.466   2.455   2.516   2.525   2.695   2.478   2.549   2.771   2.659   2.588   2.641   2.550
    50.95    2.489   2.554   2.563   2.598   2.594   2.700   2.581   2.602   2.594   2.727   2.544   2.583   2.817
    44.29    2.632   2.572   2.743   2.654   2.646   2.683   2.788   2.592   2.523   2.749   2.775   2.829   2.747

   Height   Standard deviation at grid points for the v component:
   124.29    2.117   2.117   2.117   2.117   2.117   2.117   2.117   2.117   2.117   2.117   2.117   2.117   2.117
   117.62    2.117   2.117   2.117   2.117   2.117   2.117   2.117   2.117   2.117   2.117   2.117   2.117   2.117
   110.95    2.117   2.117   2.117   2.117   2.117   2.117   2.117   2.117   2.117   2.117   2.117   2.117   2.117
   104.29    2.117   2.117   2.117   2.117   2.117   2.117   2.117   2.117   2.117   2.117   2.117   2.117   2.117
    97.62    2.117   2.117   2.117   2.117   2.117   2.117   2.117   2.117   2.117   2.117   2.117   2.117   2.117
    90.95    2.117   2.117   2.117   2.117   2.117   2.117   2.117   2.117   2.117   2.117   2.117   2.117   2.117
    84.29    2.117   2.117   2.117   2.117   2.117   2.117   2.117   2.117   2.117   2.117   2.117   2.117   2.117
    77.62    2.117   2.117   2.117   2.117   2.117   2.117   2.117   2.117   2.117   2.117   2.117   2.117   2.117
    70.95    2.117   2.117   2.117   2.117   2.117   2.117   2.117   2.117   2.117   2.117   2.117   2.117   2.117
    64.29    2.117   2.117   2.117   2.117   2.117   2.117   2.117   2.117   2.117   2.117   2.117   2.117   2.117
    57.62    2.117   2.117   2.117   2.117   2.117   2.117   2.117   2.117   2.117   2.117   2.117   2.117   2.117
    50.95    2.117   2.117   2.117   2.117   2.117   2.117   2.117   2.117   2.117   2.117   2.117   2.117   2.117
    44.29    2.117   2.117   2.117   2.117   2.117   2.117   2.117   2.117   2.117   2.117   2.117   2.117   2.117

   Height   Standard deviation at grid points for the w component:
   124.29    1.301   1.301   1.301   1.301   1.301   1.301   1.301   1.301   1.301   1.301   1.301   1.301   1.301
   117.62    1.301   1.301   1.301   1.301   1.301   1.301   1.301   1.301   1.301   1.301   1.301   1.301   1.301
   110.95    1.301   1.301   1.301   1.301   1.301   1.301   1.301   1.301   1.301   1.301   1.301   1.301   1.301
   104.29    1.301   1.301   1.301   1.301   1.301   1.301   1.301   1.301   1.301   1.301   1.301   1.301   1.301
    97.62    1.301   1.301   1.301   1.301   1.301   1.301   1.301   1.301   1.301   1.301   1.301   1.301   1.301
    90.95    1.301   1.301   1.301   1.301   1.301   1.301   1.301   1.301   1.301   1.301   1.301   1.301   1.301
    84.29    1.301   1.301   1.301   1.301   1.301   1.301   1.301   1.301   1.301   1.301   1.301   1.301   1.301
    77.62    1.301   1.301   1.301   1.301   1.301   1.301   1.301   1.301   1.301   1.301   1.301   1.301   1.301
    70.95    1.301   1.301   1.301   1.301   1.301   1.301   1.301   1.301   1.301   1.301   1.301   1.301   1.301
    64.29    1.301   1.301   1.301   1.301   1.301   1.301   1.301   1.301   1.301   1.301   1.301   1.301   1.301
    57.62    1.301   1.301   1.301   1.301   1.301   1.301   1.301   1.301   1.301   1.301   1.301   1.301   1.301
    50.95    1.301   1.301   1.301   1.301   1.301   1.301   1.301   1.301   1.301   1.301   1.301   1.301   1.301
    44.29    1.301   1.301   1.301   1.301   1.301   1.301   1.301   1.301   1.301   1.301   1.301   1.301   1.301

   Mean standard deviation across all grid points:
      u component:    2.631 m/s
      v component:    2.117 m/s
      w component:    1.301 m/s


U-component (X) statistics from the hub grid point:

   Mean =  15.0000 m/s
   TI   =  17.1062 %


Normalizing Parameters for Binary Data (approximate statistics):

   UBar  =  15.0000 m/s
   TI(u) =  17.1062 %
   TI(v) =  14.1144 %
   TI(w) =   8.6744 %

   Height Offset =   0.0000 m
   Grid Base     =  44.2876 m

Creating a PERIODIC output file.

Nyquist frequency of turbulent wind field =        10.000 Hz


Processing complete.  4.1652 CPU seconds used.
