
This summary file was generated by TurbSim (v2.00.06a-bjj, 6-Jun-2016) on 07-Jun-2016 at 10:43:28.


Runtime Options:

    123456  Random seed #1
    RANLUX  Type of random number generator
         F  Output binary HH turbulence parameters?
         F  Output formatted turbulence parameters?
         F  Output AeroDyn HH files?
         F  Output AeroDyn FF files?
         T  Output BLADED FF files?
         F  Output tower data?
         F  Output formatted FF files?
         T  Output coherent turbulence time step file?
         F  Clockwise rotation when looking downwind?
 0 -  NONE  IEC turbulence models scaled to exact specified standard deviation


Turbine/Model Specifications:

         5  Vertical grid-point matrix dimension
         5  Horizontal grid-point matrix dimension
     0.050  Time step [seconds]
   600.000  Analysis time [seconds]
   100.000  Usable output time [seconds]
    37.000  Hub height [m]
    50.000  Grid height [m]
    50.000  Grid width [m]
     0.000  Vertical flow angle [degrees]
     0.000  Horizontal flow angle [degrees]


Meteorological Boundary Conditions:

    NWTCUP  NREL National Wind Technology Center spectral model
       N/A  IEC standard
    KHTEST  Kelvin-Helmholtz billow test case
       N/A  IEC turbulence type
       N/A  IEC Extreme Turbulence Model (ETM) "c" parameter [m/s]
       IEC  Wind profile type
    37.000  Reference height [m]
    13.000  Reference wind speed [m/s]
       N/A  Jet height [m]
     0.300  Power law exponent
     0.021  Surface roughness length [m]


Non-IEC Meteorological Boundary Conditions:

    45.000  Site latitude [degrees]
     0.020  Gradient Richardson number
     0.729  Friction or shear velocity [m/s]
       N/A  Mixing layer depth [m]
    -0.576  Mean hub u'w' Reynolds stress
     2.685  Mean hub u'v' Reynolds stress
     0.221  Mean hub v'w' Reynolds stress


Spatial Coherence Models:

   GENERAL  u-component coherence model
   GENERAL  v-component coherence model
   GENERAL  w-component coherence model
(   10.915, 0.263E-03)  u-component coherence parameters
(    8.569, 0.684E-03)  v-component coherence parameters
(    4.541, 0.533E-02)  w-component coherence parameters
     0.000  Coherence exponent


Coherent Turbulence Scaling Parameters:

.\EventData
            Name of the path containing the coherent turbulence data files
       les  Type of coherent turbulence data files
     1.000  Disturbance scale (ratio of wave height to rotor diameter)
     0.500  Fractional location of tower centerline from right
     0.500  Fractional location of hub height from the bottom of the dataset
     0.000  Minimum start time for coherent structures [seconds]


You have requested that the following file(s) be generated:

   KHtest.wnd (AeroDyn/BLADED full-field wnd file)
   KHtest.cts (coherent turbulence time step file)


Turbulence Simulation Scaling Parameter Summary:

   Turbulence model used                            =  NREL National Wind Technology Center
   Gradient Richardson number                       =    0.020
   Monin-Obukhov (M-O) z/L parameter                =    0.058
   Monin-Obukhov (M-O) length scale                 =  638.531 m
   Mean wind speed at hub height                    =   13.000 m/s

   Wind profile type                                =  Power law on rotor disk, logarithmic elsewhere
   Power law exponent                               =    0.300
   Mean shear across rotor disk                     =    0.118 (m/s)/m
   Assumed rotor diameter                           =   50.000 m
   Surface roughness length                         =    0.021 m

   Nyquist frequency of turbulent wind field        =   10.000 Hz

   Number of time steps in the FFT                  =    12000
   Number of time steps output                      =     2077
   Number of points simulated                       =       25

KH Billow Test Parameters:

   Gradient Richardson number                       =    0.020
   Power law exponent                               =    0.300
   Length of coherent structures                    =   50.000 s
   Minimum coherent TKE                             =   30.000 (m/s)^2


Mean Flow Angles:

   Vertical   =   0.0 degrees
   Horizontal =   0.0 degrees

Mean Wind Speed Profile:

   Height    Wind Speed   Horizontal Angle  Vertical Angle  U-comp (X)   V-comp (Y)   W-comp (Z)
     (m)        (m/s)         (degrees)       (degrees)       (m/s)        (m/s)        (m/s)   
   ------    ----------   ----------------  --------------  ----------   ----------   ----------
     62.0       15.18            0.00            0.00         15.18         0.00         0.00
     49.5       14.19            0.00            0.00         14.19         0.00         0.00
     37.0       13.00            0.00            0.00         13.00         0.00         0.00
     24.5       11.49            0.00            0.00         11.49         0.00         0.00
     12.0        9.27            0.00            0.00          9.27         0.00         0.00


Harvested Random Seeds after Generation of the Random Numbers:

      4181250 K 1
            0 K 2


Scaling statistics from the hub grid point:

   Cross-Component  Scaling Factor
   ---------------  --------------
   u'w'               -0.13396E+00
   u'v'                0.87633E+00
   v'w'                0.67219E+00


Hub-Height Simulated Turbulence Statistical Summary:

   Type of Wind        Min (m/s)   Mean (m/s)    Max (m/s)  Sigma (m/s)       TI (%)
   ----------------    ---------   ----------    ---------  -----------       ------
   Longitudinal (u)         5.67        13.00        19.36        1.836       14.124
   Lateral (v)             -8.23         0.00         8.73        2.483       19.100
   Vertical (w)            -3.56        -0.00         3.51        0.988        7.598
   U component              5.67        13.00        19.36        1.836       14.124
   V component             -8.23         0.00         8.73        2.483       19.100
   W component             -3.56        -0.00         3.51        0.988        7.598
   Horizontal (U&V)         7.28        13.24        20.98        1.809       13.665
   Total                    7.36        13.28        21.11        1.803       13.577

                       Min Reynolds     Mean Reynolds    Max Reynolds    Correlation
   Product             Stress (m/s)^2   Stress (m/s)^2   Stress (m/s)^2  Coefficient
   ----------------    --------------   --------------   --------------  -----------
   u'w'                    -20.093            -0.576             7.313        -0.318
   u'v'                     -9.885             2.685            53.090         0.589
   v'w'                    -23.297             0.221            16.832         0.090


   Friction Velocity (Ustar)  =      0.759 m/s
   Maximum Instantaneous TKE  =     59.189 (m/s)^2
   Maximum Instantaneous CTKE =     29.193 (m/s)^2


Grid Point Variance Summary:

   Y-coord  -25.00  -12.50    0.00   12.50   25.00

   Height   Standard deviation at grid points for the u component:
    62.00    1.808   1.759   1.641   1.452   1.485
    49.50    1.873   1.755   1.725   1.624   1.621
    37.00    1.921   1.791   1.836   1.645   1.721
    24.50    1.869   1.853   1.833   1.594   1.679
    12.00    2.021   2.010   2.020   1.823   1.815

   Height   Standard deviation at grid points for the v component:
    62.00    2.286   2.277   2.239   2.163   1.922
    49.50    2.322   2.234   2.290   2.289   2.237
    37.00    2.647   2.397   2.483   2.383   2.474
    24.50    2.748   2.700   2.526   2.481   2.540
    12.00    2.775   2.722   2.847   2.801   2.781

   Height   Standard deviation at grid points for the w component:
    62.00    1.051   1.057   1.011   1.023   1.043
    49.50    1.056   1.077   1.093   1.085   1.078
    37.00    1.065   1.032   0.988   1.001   1.034
    24.50    1.032   1.065   1.009   1.002   1.020
    12.00    1.042   1.005   1.038   1.024   1.046

   Mean standard deviation across all grid points:
      u component:    1.767 m/s
      v component:    2.462 m/s
      w component:    1.039 m/s


Number of coherent events            =        1
Predicted length of coherent events  =   50.000 seconds
Length of coherent events            =   68.466 seconds
Maximum predicted event CTKE         =   72.800 (m/s)^2
Nyquist frequency of coherent events =   28.050 Hz


U-component (X) statistics from the interpolated hub point:

   Mean =  13.0000 m/s
   TI   =  14.1239 %


Normalizing Parameters for Binary Data (approximate statistics):

   UBar  =  13.0000 m/s
   TI(u) =  14.1239 %
   TI(v) =  19.1004 %
   TI(w) =   7.5981 %

   Height Offset =   0.0000 m
   Grid Base     =  12.0000 m

Creating a PERIODIC output file.


Processing complete.  0.4212 CPU seconds used.
