
This summary file was generated by TurbSim (v2.00.01a-bjj, 14-Oct-2014) on 14-Oct-2014 at 12:52:40.


Runtime Options:

   4433456  Random seed #1
    RANLUX  Type of random number generator
         T  Output binary HH turbulence parameters?
         F  Output formatted turbulence parameters?
         F  Output AeroDyn HH files?
         F  Output AeroDyn FF files?
         T  Output BLADED FF files?
         F  Output tower data?
         F  Output formatted FF files?
         T  Output coherent turbulence time step file?
         F  Clockwise rotation when looking downwind?
 0 -  NONE  IEC turbulence models scaled to exact specified standard deviation


Turbine/Model Specifications:

         5  Vertical grid-point matrix dimension
         5  Horizontal grid-point matrix dimension
     0.050  Time step [seconds]
   600.000  Analysis time [seconds]
   600.000  Usable output time [seconds]
    84.000  Hub height [m]
    70.000  Grid height [m]
    70.000  Grid width [m]
     0.000  Vertical flow angle [degrees]
     0.000  Horizontal flow angle [degrees]


Meteorological Boundary Conditions:

    SMOOTH  RISO Smooth Terrain spectral model
       N/A  IEC standard
       N/A  IEC turbulence characteristic
       N/A  IEC turbulence type
       N/A  IEC Extreme Turbulence Model (ETM) "c" parameter [m/s]
       IEC  Wind profile type
    84.000  Reference height [m]
    17.000  Reference wind speed [m/s]
       N/A  Jet height [m]
     1.527  Power law exponent
     0.010  Surface roughness length [m]


Non-IEC Meteorological Boundary Conditions:

    45.000  Site latitude [degrees]
     0.050  Gradient Richardson number
     0.726  Friction or shear velocity [m/s]
       N/A  Mixing layer depth [m]
    -0.527  Mean hub u'w' Reynolds stress
       N/A  Mean hub u'v' Reynolds stress
       N/A  Mean hub v'w' Reynolds stress


Spatial Coherence Models:

   GENERAL  u-component coherence model
   GENERAL  v-component coherence model
   GENERAL  w-component coherence model
(   17.000,  0.00    )  u-component coherence parameters
(   12.750,  0.00    )  v-component coherence parameters
(   12.750,  0.00    )  w-component coherence parameters
     0.000  Coherence exponent


Coherent Turbulence Scaling Parameters:

.\EventData
            Name of the path containing the coherent turbulence data files
       les  Type of coherent turbulence data files
     1.000  Disturbance scale (ratio of wave height to rotor diameter)
     0.500  Fractional location of tower centerline from right
     0.500  Fractional location of hub height from the bottom of the dataset
    10.000  Minimum start time for coherent structures [seconds]


You have requested that the following file(s) be generated:

   smooth.bin (binary hub-height turbulence-parameter file)
   smooth.wnd (AeroDyn/BLADED full-field wnd file)
   smooth.cts (coherent turbulence time step file)


Turbulence Simulation Scaling Parameter Summary:

   Turbulence model used                            =  RISO Smooth Terrain
   Gradient Richardson number                       =    0.050
   Monin-Obukhov (M-O) z/L parameter                =    0.067
   Monin-Obukhov (M-O) length scale                 = 1260.000 m
   Mean wind speed at hub height                    =   17.000 m/s

   Wind profile type                                =  Power law on rotor disk, logarithmic elsewhere
   Power law exponent                               =    1.527
   Mean shear across rotor disk                     =    0.307 (m/s)/m
   Assumed rotor diameter                           =   70.000 m
   Surface roughness length                         =    0.010 m

   Nyquist frequency of turbulent wind field        =   10.000 Hz

   Number of time steps in the FFT                  =    12000
   Number of time steps output                      =    12000
   Number of points simulated                       =       25


Mean Flow Angles:

   Vertical   =   0.0 degrees
   Horizontal =   0.0 degrees

Mean Wind Speed Profile:

   Height    Wind Speed   Horizontal Angle  Vertical Angle  U-comp (X)   V-comp (Y)   W-comp (Z)
     (m)        (m/s)         (degrees)       (degrees)       (m/s)        (m/s)        (m/s)   
   ------    ----------   ----------------  --------------  ----------   ----------   ----------
    119.0       28.94            0.00            0.00         28.94         0.00         0.00
    101.5       22.70            0.00            0.00         22.70         0.00         0.00
     84.0       17.00            0.00            0.00         17.00         0.00         0.00
     66.5       11.90            0.00            0.00         11.90         0.00         0.00
     49.0        7.46            0.00            0.00          7.46         0.00         0.00


Harvested Random Seeds after Generation of the Random Numbers:

      4181250 K 1
            0 K 2


Scaling statistics from the hub grid point:

   Cross-Component  Scaling Factor
   ---------------  --------------
   u'w'               -0.14192E+00
   u'v'                0.00000E+00
   v'w'                0.00000E+00


Hub-Height Simulated Turbulence Statistical Summary:

   Type of Wind        Min (m/s)   Mean (m/s)    Max (m/s)  Sigma (m/s)       TI (%)
   ----------------    ---------   ----------    ---------  -----------       ------
   Longitudinal (u)        11.61        17.00        22.80        1.763       10.370
   Lateral (v)             -5.89         0.00         5.46        1.434        8.437
   Vertical (w)            -3.26         0.00         4.46        1.136        6.680
   U component             11.61        17.00        22.80        1.763       10.370
   V component             -5.89         0.00         5.46        1.434        8.437
   W component             -3.26         0.00         4.46        1.136        6.680
   Horizontal (U&V)        11.61        17.06        22.95        1.755       10.284
   Total                   11.63        17.10        22.98        1.754       10.258

                       Min Reynolds     Mean Reynolds    Max Reynolds    Correlation
   Product             Stress (m/s)^2   Stress (m/s)^2   Stress (m/s)^2  Coefficient
   ----------------    --------------   --------------   --------------  -----------
   u'w'                    -13.020            -0.527            12.015        -0.263
   u'v'                    -17.132             0.497            15.648         0.197
   v'w'                    -11.509            -0.008             8.373        -0.005


   Friction Velocity (Ustar)  =      0.726 m/s
   Maximum Instantaneous TKE  =     20.968 (m/s)^2
   Maximum Instantaneous CTKE =      8.887 (m/s)^2


Grid Point Variance Summary:

   Y-coord  -35.00  -17.50    0.00   17.50   35.00

   Height   Standard deviation at grid points for the u component:
   119.00    1.868   1.849   1.849   1.902   1.794
   101.50    1.864   1.811   1.867   1.827   1.919
    84.00    1.757   1.869   1.763   1.816   1.754
    66.50    1.846   1.816   1.864   1.710   1.677
    49.00    1.841   1.701   1.671   1.939   1.964

   Height   Standard deviation at grid points for the v component:
   119.00    1.446   1.457   1.520   1.445   1.474
   101.50    1.488   1.456   1.425   1.468   1.498
    84.00    1.476   1.369   1.434   1.437   1.456
    66.50    1.501   1.463   1.419   1.388   1.483
    49.00    1.430   1.439   1.444   1.494   1.528

   Height   Standard deviation at grid points for the w component:
   119.00    1.157   1.170   1.197   1.147   1.152
   101.50    1.163   1.147   1.164   1.157   1.165
    84.00    1.170   1.197   1.136   1.171   1.134
    66.50    1.153   1.189   1.170   1.145   1.145
    49.00    1.150   1.207   1.136   1.201   1.177

   Mean standard deviation across all grid points:
      u component:    1.822 m/s
      v component:    1.458 m/s
      w component:    1.164 m/s


Average expected time between events =  138.282 seconds
Number of coherent events            =        4
Predicted length of coherent events  =   24.347 seconds
Length of coherent events            =   26.522 seconds
Maximum predicted event CTKE         =    8.645 (m/s)^2
Nyquist frequency of coherent events =   16.194 Hz


U-component (X) statistics from the interpolated hub point:

   Mean =  17.0000 m/s
   TI   =  10.3701 %


Normalizing Parameters for Binary Data (approximate statistics):

   UBar  =  17.0000 m/s
   TI(u) =  10.3701 %
   TI(v) =   8.4372 %
   TI(w) =   6.6797 %

   Height Offset =   0.0000 m
   Grid Base     =  49.0000 m

Creating a PERIODIC output file.


Processing complete.  0.4524 CPU seconds used.
