
This summary file was generated by TurbSim (v2.00.01a-bjj, 14-Oct-2014) on 14-Oct-2014 at 12:52:58.


Runtime Options:

   2318573  Random seed #1
    RANLUX  Type of random number generator
         F  Output binary HH turbulence parameters?
         F  Output formatted turbulence parameters?
         F  Output AeroDyn HH files?
         F  Output AeroDyn FF files?
         T  Output BLADED FF files?
         F  Output tower data?
         F  Output formatted FF files?
         F  Output coherent turbulence time step file?
         T  Clockwise rotation when looking downwind?
 0 -  NONE  IEC turbulence models scaled to exact specified standard deviation


Turbine/Model Specifications:

         3  Vertical grid-point matrix dimension
         3  Horizontal grid-point matrix dimension
     0.050  Time step [seconds]
   600.000  Analysis time [seconds]
    40.000  Usable output time [seconds]
    90.000  Hub height [m]
    80.000  Grid height [m]
    80.000  Grid width [m]
     0.000  Vertical flow angle [degrees]
     0.000  Horizontal flow angle [degrees]


Meteorological Boundary Conditions:

    USRINP  Uniform user-input spectral model
       N/A  IEC standard
       N/A  IEC turbulence characteristic
       N/A  IEC turbulence type
       N/A  IEC Extreme Turbulence Model (ETM) "c" parameter [m/s]
       PL   Wind profile type
    90.000  Reference height [m]
    12.000  Reference wind speed [m/s]
       N/A  Jet height [m]
     0.200  Power law exponent
     0.030  Surface roughness length [m]


Non-IEC Meteorological Boundary Conditions:

    45.000  Site latitude [degrees]
     0.000  Gradient Richardson number
     0.600  Friction or shear velocity [m/s]
       N/A  Mixing layer depth [m]
       N/A  Mean hub u'w' Reynolds stress
       N/A  Mean hub u'v' Reynolds stress
       N/A  Mean hub v'w' Reynolds stress


Spatial Coherence Models:

   GENERAL  u-component coherence model
      NONE  v-component coherence model
      NONE  w-component coherence model
(   12.000, 0.353E-03)  u-component coherence parameters
                   N/A  v-component coherence parameters
                   N/A  w-component coherence parameters
     0.000  Coherence exponent


You have requested that the following file(s) be generated:

   TurbSim_UsrSpec.wnd (AeroDyn/BLADED full-field wnd file)


Turbulence Simulation Scaling Parameter Summary:

   Turbulence model used                            =  Uniform user-input
   Gradient Richardson number                       =    0.000
   Monin-Obukhov (M-O) z/L parameter                =    0.000
   Monin-Obukhov (M-O) length scale                 =  Infinite
   Mean wind speed at hub height                    =   12.000 m/s

   Wind profile type                                =  Power law
   Power law exponent                               =    0.200
   Mean shear across rotor disk                     =    0.028 (m/s)/m
   Assumed rotor diameter                           =   80.000 m
   Surface roughness length                         =    0.030 m

   Nyquist frequency of turbulent wind field        =   10.000 Hz

   Number of time steps in the FFT                  =    12000
   Number of time steps output                      =      934
   Number of points simulated                       =        9


Mean Flow Angles:

   Vertical   =   0.0 degrees
   Horizontal =   0.0 degrees

Mean Wind Speed Profile:

   Height    Wind Speed   Horizontal Angle  Vertical Angle  U-comp (X)   V-comp (Y)   W-comp (Z)
     (m)        (m/s)         (degrees)       (degrees)       (m/s)        (m/s)        (m/s)   
   ------    ----------   ----------------  --------------  ----------   ----------   ----------
    130.0       12.92            0.00            0.00         12.92         0.00         0.00
     90.0       12.00            0.00            0.00         12.00         0.00         0.00
     50.0       10.67            0.00            0.00         10.67         0.00         0.00


Harvested Random Seeds after Generation of the Random Numbers:

      1505250 K 1
            0 K 2


Hub-Height Simulated Turbulence Statistical Summary:

   Type of Wind        Min (m/s)   Mean (m/s)    Max (m/s)  Sigma (m/s)       TI (%)
   ----------------    ---------   ----------    ---------  -----------       ------
   Longitudinal (u)         6.22        12.00        17.81        1.943       16.192
   Lateral (v)             -5.34         0.00         5.78        1.598       13.317
   Vertical (w)            -3.62         0.00         3.54        0.999        8.324
   U component              6.22        12.00        17.81        1.943       16.192
   V component             -5.34         0.00         5.78        1.598       13.317
   W component             -3.62         0.00         3.54        0.999        8.324
   Horizontal (U&V)         6.37        12.11        17.81        1.906       15.733
   Total                    6.48        12.15        17.91        1.901       15.637

                       Min Reynolds     Mean Reynolds    Max Reynolds    Correlation
   Product             Stress (m/s)^2   Stress (m/s)^2   Stress (m/s)^2  Coefficient
   ----------------    --------------   --------------   --------------  -----------
   u'w'                    -13.902             0.003            11.036         0.001
   u'v'                    -18.325            -0.505            20.869        -0.163
   v'w'                    -11.379            -0.004             9.396        -0.002


   Friction Velocity (Ustar)  =      0.053 m/s
   Maximum Instantaneous TKE  =     22.023 (m/s)^2
   Maximum Instantaneous CTKE =     10.493 (m/s)^2


Grid Point Variance Summary:

   Y-coord  -40.00    0.00   40.00

   Height   Standard deviation at grid points for the u component:
   130.00    1.979   1.886   1.835
    90.00    1.956   1.943   2.076
    50.00    1.948   1.995   2.173

   Height   Standard deviation at grid points for the v component:
   130.00    1.598   1.598   1.598
    90.00    1.598   1.598   1.598
    50.00    1.598   1.598   1.598

   Height   Standard deviation at grid points for the w component:
   130.00    0.999   0.999   0.999
    90.00    0.999   0.999   0.999
    50.00    0.999   0.999   0.999

   Mean standard deviation across all grid points:
      u component:    1.977 m/s
      v component:    1.598 m/s
      w component:    0.999 m/s


U-component (X) statistics from the interpolated hub point:

   Mean =  12.0000 m/s
   TI   =  16.1923 %


Normalizing Parameters for Binary Data (approximate statistics):

   UBar  =  12.0000 m/s
   TI(u) =  16.1923 %
   TI(v) =  13.3166 %
   TI(w) =   8.3237 %

   Height Offset =   0.0000 m
   Grid Base     =  50.0000 m

Creating a PERIODIC output file.


Processing complete.  7.80005E-02 CPU seconds used.
