
This summary file was generated by TurbSim (v2.00.06a-bjj, 6-Jun-2016) on 07-Jun-2016 at 10:43:45.


Runtime Options:

   2318573  Random seed #1
    RANLUX  Type of random number generator
         F  Output binary HH turbulence parameters?
         F  Output formatted turbulence parameters?
         F  Output AeroDyn HH files?
         T  Output AeroDyn FF files?
         F  Output BLADED FF files?
         F  Output tower data?
         F  Output formatted FF files?
         F  Output coherent turbulence time step file?
         T  Clockwise rotation when looking downwind?
 0 -  NONE  IEC turbulence models scaled to exact specified standard deviation


Turbine/Model Specifications:

        13  Vertical grid-point matrix dimension
        13  Horizontal grid-point matrix dimension
     0.050  Time step [seconds]
   600.000  Analysis time [seconds]
   600.000  Usable output time [seconds]
    84.288  Hub height [m]
    80.000  Grid height [m]
    80.000  Grid width [m]
     0.000  Vertical flow angle [degrees]
     0.000  Horizontal flow angle [degrees]


Meteorological Boundary Conditions:

    IECKAI  IEC Kaimal spectral model
         1  IEC standard: IEC 61400-1 Ed. 3: 2005
         A  IEC turbulence characteristic
       NTM  IEC Normal Turbulence Model
       N/A  IEC Extreme Turbulence Model (ETM) "c" parameter [m/s]
       USR  Wind profile type
    84.288  Reference height [m]
       N/A  Reference wind speed [m/s]
       N/A  Jet height [m]
       N/A  Power law exponent
     0.030  Surface roughness length [m]


Non-IEC Meteorological Boundary Conditions:

       N/A  Site latitude [degrees]
       N/A  Gradient Richardson number
       N/A  Friction or shear velocity [m/s]
       N/A  Mixing layer depth [m]
       N/A  Mean hub u'w' Reynolds stress
       N/A  Mean hub u'v' Reynolds stress
       N/A  Mean hub v'w' Reynolds stress


Spatial Coherence Models:

       IEC  u-component coherence model
      NONE  v-component coherence model
      NONE  w-component coherence model
(   12.000, 0.353E-03)  u-component coherence parameters
                   N/A  v-component coherence parameters
                   N/A  w-component coherence parameters
       N/A  Coherence exponent


User-Defined Profiles:

  Height   Wind Speed   Horizontal Angle
   (m)        (m/s)          (deg)      
  ------   ----------   ----------------
   55.00       7.00           0.00
   45.00       6.00           0.00
   35.00       5.00           0.00
   25.00       4.00           0.00
   15.00       3.00           0.00


You have requested that the following file(s) be generated:

   UsrShear.bts (AeroDyn/TurbSim full-field wind file)


Turbulence Simulation Scaling Parameter Summary:

   Turbulence model used                            =  IEC Kaimal
   Turbulence characteristic                        =  A
   IEC turbulence type                              =  Normal Turbulence Model
   IEC standard                                     =  IEC 61400-1 Ed. 3: 2005
   Mean wind speed at hub height                    =    7.000 m/s
   Expected value of turbulence intensity at 15 m/s =   16.000%
   Characteristic value of standard deviation       =    1.736 m/s
   Turbulence scale                                 =   42.000 m
   u-component integral scale                       =  340.200 m
   Coherency scale                                  =  340.200 m
   Characteristic value of hub turbulence intensity =   24.800%
   Gradient Richardson number                       =    0.000

   Wind profile type                                =  Linear interpolation of user-defined profile
   Equivalent power law exponent across rotor disk  =    0.161
   Mean shear across rotor disk                     =    0.013 (m/s)/m
   Assumed rotor diameter                           =   80.000 m
   Surface roughness length                         =    0.030 m

   Nyquist frequency of turbulent wind field        =   10.000 Hz

   Number of time steps in the FFT                  =    12236
   Number of time steps output                      =    12229
   Number of points simulated                       =      169


Mean Flow Angles:

   Vertical   =   0.0 degrees
   Horizontal =   0.0 degrees

Mean Wind Speed Profile:

   Height    Wind Speed   Horizontal Angle  Vertical Angle  U-comp (X)   V-comp (Y)   W-comp (Z)
     (m)        (m/s)         (degrees)       (degrees)       (m/s)        (m/s)        (m/s)   
   ------    ----------   ----------------  --------------  ----------   ----------   ----------
    124.3        7.00            0.00            0.00          7.00         0.00         0.00
    117.6        7.00            0.00            0.00          7.00         0.00         0.00
    111.0        7.00            0.00            0.00          7.00         0.00         0.00
    104.3        7.00            0.00            0.00          7.00         0.00         0.00
     97.6        7.00            0.00            0.00          7.00         0.00         0.00
     91.0        7.00            0.00            0.00          7.00         0.00         0.00
     84.3        7.00            0.00            0.00          7.00         0.00         0.00
     77.6        7.00            0.00            0.00          7.00         0.00         0.00
     71.0        7.00            0.00            0.00          7.00         0.00         0.00
     64.3        7.00            0.00            0.00          7.00         0.00         0.00
     57.6        7.00            0.00            0.00          7.00         0.00         0.00
     51.0        6.60            0.00            0.00          6.60         0.00         0.00
     44.3        5.93            0.00            0.00          5.93         0.00         0.00


Harvested Random Seeds after Generation of the Random Numbers:

     28820984 K 1
            0 K 2


Hub-Height Simulated Turbulence Statistical Summary:

   Type of Wind        Min (m/s)   Mean (m/s)    Max (m/s)  Sigma (m/s)       TI (%)
   ----------------    ---------   ----------    ---------  -----------       ------
   Longitudinal (u)         1.98         7.00        12.40        1.682       24.032
   Lateral (v)             -4.45         0.00         4.98        1.346       19.227
   Vertical (w)            -3.00        -0.00         2.75        0.851       12.157
   U component              1.98         7.00        12.40        1.682       24.032
   V component             -4.45         0.00         4.98        1.346       19.227
   W component             -3.00        -0.00         2.75        0.851       12.157
   Horizontal (U&V)         2.30         7.14        12.48        1.641       22.986
   Total                    2.30         7.19        12.57        1.633       22.712

                       Min Reynolds     Mean Reynolds    Max Reynolds    Correlation
   Product             Stress (m/s)^2   Stress (m/s)^2   Stress (m/s)^2  Coefficient
   ----------------    --------------   --------------   --------------  -----------
   u'w'                     -9.633            -0.038             8.201        -0.026
   u'v'                    -10.942             0.358            11.360         0.158
   v'w'                     -6.264             0.006             7.625         0.006


   Friction Velocity (Ustar)  =      0.195 m/s
   Maximum Instantaneous TKE  =     16.674 (m/s)^2
   Maximum Instantaneous CTKE =      6.447 (m/s)^2


Grid Point Variance Summary:

   Y-coord  -40.00  -33.33  -26.67  -20.00  -13.33   -6.67    0.00    6.67   13.33   20.00   26.67   33.33   40.00

   Height   Standard deviation at grid points for the u component:
   124.29    1.775   1.773   1.802   1.625   1.641   1.737   1.828   1.744   1.595   1.527   1.573   1.705   1.732
   117.62    1.768   1.651   1.841   1.764   1.613   1.618   1.766   1.644   1.684   1.604   1.540   1.575   1.657
   110.95    1.700   1.697   1.768   1.729   1.634   1.560   1.602   1.610   1.645   1.642   1.577   1.643   1.648
   104.29    1.572   1.772   1.702   1.723   1.623   1.700   1.589   1.569   1.522   1.444   1.627   1.636   1.619
    97.62    1.494   1.744   1.777   1.670   1.799   1.649   1.591   1.575   1.648   1.650   1.535   1.601   1.523
    90.95    1.551   1.769   1.749   1.716   1.734   1.708   1.739   1.720   1.683   1.698   1.613   1.568   1.516
    84.29    1.657   1.757   1.640   1.552   1.562   1.636   1.682   1.794   1.754   1.731   1.689   1.663   1.649
    77.62    1.620   1.586   1.473   1.475   1.591   1.657   1.730   1.762   1.825   1.892   1.838   1.748   1.582
    70.95    1.490   1.536   1.530   1.371   1.427   1.587   1.683   1.755   1.774   1.886   1.800   1.713   1.667
    64.29    1.535   1.518   1.509   1.313   1.362   1.572   1.698   1.795   1.762   1.832   1.692   1.594   1.678
    57.62    1.547   1.509   1.550   1.393   1.470   1.579   1.554   1.773   1.789   1.914   1.875   1.890   1.841
    50.95    1.544   1.498   1.457   1.389   1.408   1.433   1.538   1.750   1.852   1.918   1.927   1.977   1.738
    44.29    1.607   1.776   1.622   1.406   1.471   1.446   1.435   1.580   1.687   1.847   1.823   1.962   1.697

   Height   Standard deviation at grid points for the v component:
   124.29    1.346   1.346   1.346   1.346   1.346   1.346   1.346   1.346   1.346   1.346   1.346   1.346   1.346
   117.62    1.346   1.346   1.346   1.346   1.346   1.346   1.346   1.346   1.346   1.346   1.346   1.346   1.346
   110.95    1.346   1.346   1.346   1.346   1.346   1.346   1.346   1.346   1.346   1.346   1.346   1.346   1.346
   104.29    1.346   1.346   1.346   1.346   1.346   1.346   1.346   1.346   1.346   1.346   1.346   1.346   1.346
    97.62    1.346   1.346   1.346   1.346   1.346   1.346   1.346   1.346   1.346   1.346   1.346   1.346   1.346
    90.95    1.346   1.346   1.346   1.346   1.346   1.346   1.346   1.346   1.346   1.346   1.346   1.346   1.346
    84.29    1.346   1.346   1.346   1.346   1.346   1.346   1.346   1.346   1.346   1.346   1.346   1.346   1.346
    77.62    1.346   1.346   1.346   1.346   1.346   1.346   1.346   1.346   1.346   1.346   1.346   1.346   1.346
    70.95    1.346   1.346   1.346   1.346   1.346   1.346   1.346   1.346   1.346   1.346   1.346   1.346   1.346
    64.29    1.346   1.346   1.346   1.346   1.346   1.346   1.346   1.346   1.346   1.346   1.346   1.346   1.346
    57.62    1.346   1.346   1.346   1.346   1.346   1.346   1.346   1.346   1.346   1.346   1.346   1.346   1.346
    50.95    1.346   1.346   1.346   1.346   1.346   1.346   1.346   1.346   1.346   1.346   1.346   1.346   1.346
    44.29    1.346   1.346   1.346   1.346   1.346   1.346   1.346   1.346   1.346   1.346   1.346   1.346   1.346

   Height   Standard deviation at grid points for the w component:
   124.29    0.851   0.851   0.851   0.851   0.851   0.851   0.851   0.851   0.851   0.851   0.851   0.851   0.851
   117.62    0.851   0.851   0.851   0.851   0.851   0.851   0.851   0.851   0.851   0.851   0.851   0.851   0.851
   110.95    0.851   0.851   0.851   0.851   0.851   0.851   0.851   0.851   0.851   0.851   0.851   0.851   0.851
   104.29    0.851   0.851   0.851   0.851   0.851   0.851   0.851   0.851   0.851   0.851   0.851   0.851   0.851
    97.62    0.851   0.851   0.851   0.851   0.851   0.851   0.851   0.851   0.851   0.851   0.851   0.851   0.851
    90.95    0.851   0.851   0.851   0.851   0.851   0.851   0.851   0.851   0.851   0.851   0.851   0.851   0.851
    84.29    0.851   0.851   0.851   0.851   0.851   0.851   0.851   0.851   0.851   0.851   0.851   0.851   0.851
    77.62    0.851   0.851   0.851   0.851   0.851   0.851   0.851   0.851   0.851   0.851   0.851   0.851   0.851
    70.95    0.851   0.851   0.851   0.851   0.851   0.851   0.851   0.851   0.851   0.851   0.851   0.851   0.851
    64.29    0.851   0.851   0.851   0.851   0.851   0.851   0.851   0.851   0.851   0.851   0.851   0.851   0.851
    57.62    0.851   0.851   0.851   0.851   0.851   0.851   0.851   0.851   0.851   0.851   0.851   0.851   0.851
    50.95    0.851   0.851   0.851   0.851   0.851   0.851   0.851   0.851   0.851   0.851   0.851   0.851   0.851
    44.29    0.851   0.851   0.851   0.851   0.851   0.851   0.851   0.851   0.851   0.851   0.851   0.851   0.851

   Mean standard deviation across all grid points:
      u component:    1.654 m/s
      v component:    1.346 m/s
      w component:    0.851 m/s


U-component (X) statistics from the interpolated hub point:

   Mean =   7.0000 m/s
   TI   =  24.0315 %


Processing complete.  4.3212 CPU seconds used.
