
This summary file was generated by TurbSim (v2.00.06a-bjj, 6-Jun-2016) on 07-Jun-2016 at 10:43:50.


Runtime Options:

   2318573  Random seed #1
    RANLUX  Type of random number generator
         F  Output binary HH turbulence parameters?
         F  Output formatted turbulence parameters?
         F  Output AeroDyn HH files?
         F  Output AeroDyn FF files?
         T  Output BLADED FF files?
         F  Output tower data?
         F  Output formatted FF files?
         F  Output coherent turbulence time step file?
         T  Clockwise rotation when looking downwind?
 0 -  NONE  IEC turbulence models scaled to exact specified standard deviation


Turbine/Model Specifications:

        13  Vertical grid-point matrix dimension
        13  Horizontal grid-point matrix dimension
     0.050  Time step [seconds]
   600.000  Analysis time [seconds]
   600.000  Usable output time [seconds]
    84.288  Hub height [m]
    80.000  Grid height [m]
    80.000  Grid width [m]
     0.000  Vertical flow angle [degrees]
     0.000  Horizontal flow angle [degrees]


Meteorological Boundary Conditions:

    USRVKM  von Karman model with user-defined specifications spectral model
       N/A  IEC standard
       N/A  IEC turbulence characteristic
       N/A  IEC turbulence type
       N/A  IEC Extreme Turbulence Model (ETM) "c" parameter [m/s]
       USR  Wind profile type
    84.288  Reference height [m]
       N/A  Reference wind speed [m/s]
       N/A  Jet height [m]
       N/A  Power law exponent
     0.030  Surface roughness length [m]


Non-IEC Meteorological Boundary Conditions:

    45.000  Site latitude [degrees]
     0.000  Gradient Richardson number
     0.353  Friction or shear velocity [m/s]
       N/A  Mixing layer depth [m]
    -0.124  Mean hub u'w' Reynolds stress
       N/A  Mean hub u'v' Reynolds stress
       N/A  Mean hub v'w' Reynolds stress


Spatial Coherence Models:

   GENERAL  u-component coherence model
   GENERAL  v-component coherence model
   GENERAL  w-component coherence model
(    5.291, 0.330E-03)  u-component coherence parameters
(    3.489, 0.793E-03)  v-component coherence parameters
(    2.397, 0.506E-02)  w-component coherence parameters
     0.000  Coherence exponent


User-Defined Profiles:

  Height   Wind Speed   Horizontal Angle   u Std. Dev.   v Std. Dev.   w Std. Dev.   Length Scale
   (m)        (m/s)          (deg)            (m/s)         (m/s)         (m/s)          (m)     
  ------   ----------   ----------------   -----------   -----------   -----------   ------------
   55.00       7.00           0.00             0.55          0.50          0.27           13.00
   45.00       6.00           0.00             0.11          0.10          0.05            9.00
   35.00       5.00           0.00             0.33          0.30          0.16            6.00
   25.00       4.00           0.00             0.22          0.20          0.11            4.00
   15.00       3.00           0.00             0.11          0.10          0.05            3.00


You have requested that the following file(s) be generated:

   UsrVkm.wnd (AeroDyn/BLADED full-field wnd file)


Turbulence Simulation Scaling Parameter Summary:

   Turbulence model used                            =  von Karman model with user-defined specifications
   Gradient Richardson number                       =    0.000
   Monin-Obukhov (M-O) z/L parameter                =    0.000
   Monin-Obukhov (M-O) length scale                 =  Infinite
   Mean wind speed at hub height                    =    7.000 m/s

   Wind profile type                                =  Linear interpolation of user-defined profile
   Equivalent power law exponent across rotor disk  =    0.161
   Mean shear across rotor disk                     =    0.013 (m/s)/m
   Assumed rotor diameter                           =   80.000 m
   Surface roughness length                         =    0.030 m

   Nyquist frequency of turbulent wind field        =   10.000 Hz

   Number of time steps in the FFT                  =    12236
   Number of time steps output                      =    12229
   Number of points simulated                       =      169


Mean Flow Angles:

   Vertical   =   0.0 degrees
   Horizontal =   0.0 degrees

Mean Wind Speed Profile:

   Height    Wind Speed   Horizontal Angle  Vertical Angle  U-comp (X)   V-comp (Y)   W-comp (Z)
     (m)        (m/s)         (degrees)       (degrees)       (m/s)        (m/s)        (m/s)   
   ------    ----------   ----------------  --------------  ----------   ----------   ----------
    124.3        7.00            0.00            0.00          7.00         0.00         0.00
    117.6        7.00            0.00            0.00          7.00         0.00         0.00
    111.0        7.00            0.00            0.00          7.00         0.00         0.00
    104.3        7.00            0.00            0.00          7.00         0.00         0.00
     97.6        7.00            0.00            0.00          7.00         0.00         0.00
     91.0        7.00            0.00            0.00          7.00         0.00         0.00
     84.3        7.00            0.00            0.00          7.00         0.00         0.00
     77.6        7.00            0.00            0.00          7.00         0.00         0.00
     71.0        7.00            0.00            0.00          7.00         0.00         0.00
     64.3        7.00            0.00            0.00          7.00         0.00         0.00
     57.6        7.00            0.00            0.00          7.00         0.00         0.00
     51.0        6.60            0.00            0.00          6.60         0.00         0.00
     44.3        5.93            0.00            0.00          5.93         0.00         0.00


Harvested Random Seeds after Generation of the Random Numbers:

     28820984 K 1
            0 K 2


Scaling statistics from the hub grid point:

   Cross-Component  Scaling Factor
   ---------------  --------------
   u'w'               -0.49442E+00
   u'v'                0.00000E+00
   v'w'                0.00000E+00


Hub-Height Simulated Turbulence Statistical Summary:

   Type of Wind        Min (m/s)   Mean (m/s)    Max (m/s)  Sigma (m/s)       TI (%)
   ----------------    ---------   ----------    ---------  -----------       ------
   Longitudinal (u)         5.02         7.00         8.95        0.511        7.300
   Lateral (v)             -1.71         0.00         1.88        0.485        6.925
   Vertical (w)            -1.20         0.00         1.44        0.345        4.924
   U component              5.02         7.00         8.95        0.511        7.300
   V component             -1.71         0.00         1.88        0.485        6.925
   W component             -1.20         0.00         1.44        0.345        4.924
   Horizontal (U&V)         5.02         7.02         8.97        0.510        7.267
   Total                    5.16         7.03         9.00        0.508        7.236

                       Min Reynolds     Mean Reynolds    Max Reynolds    Correlation
   Product             Stress (m/s)^2   Stress (m/s)^2   Stress (m/s)^2  Coefficient
   ----------------    --------------   --------------   --------------  -----------
   u'w'                     -2.358            -0.124             0.291        -0.706
   u'v'                     -1.800             0.016             1.959         0.067
   v'w'                     -1.150            -0.007             1.221        -0.039


   Friction Velocity (Ustar)  =      0.353 m/s
   Maximum Instantaneous TKE  =      2.700 (m/s)^2
   Maximum Instantaneous CTKE =      1.467 (m/s)^2


Grid Point Variance Summary:

   Y-coord  -40.00  -33.33  -26.67  -20.00  -13.33   -6.67    0.00    6.67   13.33   20.00   26.67   33.33   40.00

   Height   Standard deviation at grid points for the u component:
   124.29    0.543   0.545   0.543   0.516   0.503   0.516   0.527   0.514   0.526   0.523   0.532   0.518   0.525
   117.62    0.545   0.519   0.541   0.541   0.505   0.514   0.523   0.513   0.539   0.541   0.533   0.525   0.550
   110.95    0.537   0.521   0.539   0.540   0.525   0.509   0.512   0.521   0.532   0.510   0.529   0.531   0.548
   104.29    0.529   0.536   0.520   0.529   0.535   0.520   0.532   0.511   0.503   0.502   0.522   0.514   0.528
    97.62    0.534   0.534   0.523   0.530   0.549   0.516   0.531   0.533   0.526   0.485   0.496   0.502   0.512
    90.95    0.516   0.526   0.523   0.519   0.530   0.523   0.527   0.520   0.518   0.508   0.518   0.523   0.513
    84.29    0.523   0.504   0.515   0.519   0.499   0.498   0.511   0.516   0.511   0.508   0.519   0.516   0.511
    77.62    0.509   0.493   0.493   0.494   0.504   0.498   0.508   0.520   0.513   0.490   0.503   0.511   0.508
    70.95    0.491   0.498   0.485   0.490   0.489   0.484   0.490   0.498   0.487   0.485   0.475   0.484   0.494
    64.29    0.489   0.480   0.487   0.468   0.476   0.485   0.483   0.480   0.490   0.476   0.483   0.479   0.494
    57.62    0.482   0.478   0.464   0.457   0.470   0.480   0.453   0.461   0.442   0.459   0.452   0.458   0.458
    50.95    0.315   0.316   0.310   0.305   0.307   0.311   0.300   0.311   0.313   0.313   0.313   0.318   0.315
    44.29    0.123   0.127   0.125   0.118   0.120   0.118   0.118   0.116   0.120   0.124   0.125   0.127   0.127

   Height   Standard deviation at grid points for the v component:
   124.29    0.499   0.514   0.490   0.481   0.474   0.482   0.479   0.508   0.513   0.499   0.480   0.497   0.498
   117.62    0.510   0.504   0.501   0.494   0.474   0.477   0.480   0.499   0.499   0.510   0.506   0.490   0.482
   110.95    0.501   0.497   0.501   0.509   0.494   0.496   0.483   0.485   0.491   0.494   0.514   0.494   0.472
   104.29    0.495   0.497   0.504   0.501   0.501   0.503   0.498   0.501   0.495   0.492   0.471   0.492   0.480
    97.62    0.489   0.493   0.506   0.512   0.513   0.488   0.492   0.505   0.492   0.482   0.485   0.477   0.472
    90.95    0.497   0.487   0.496   0.502   0.495   0.483   0.487   0.477   0.492   0.497   0.493   0.486   0.469
    84.29    0.479   0.482   0.486   0.490   0.491   0.482   0.485   0.481   0.482   0.481   0.487   0.488   0.479
    77.62    0.466   0.464   0.463   0.460   0.467   0.476   0.459   0.466   0.475   0.467   0.475   0.477   0.481
    70.95    0.454   0.450   0.439   0.444   0.440   0.444   0.443   0.443   0.461   0.458   0.460   0.467   0.467
    64.29    0.442   0.429   0.427   0.440   0.429   0.425   0.423   0.437   0.443   0.446   0.456   0.435   0.444
    57.62    0.424   0.413   0.415   0.417   0.414   0.406   0.403   0.408   0.419   0.427   0.422   0.417   0.415
    50.95    0.287   0.282   0.289   0.283   0.287   0.288   0.282   0.290   0.282   0.288   0.296   0.289   0.284
    44.29    0.112   0.114   0.114   0.117   0.116   0.113   0.109   0.111   0.113   0.112   0.113   0.110   0.111

   Height   Standard deviation at grid points for the w component:
   124.29    0.377   0.370   0.371   0.358   0.347   0.347   0.362   0.356   0.379   0.365   0.365   0.366   0.366
   117.62    0.380   0.369   0.366   0.356   0.363   0.361   0.357   0.360   0.367   0.369   0.364   0.366   0.389
   110.95    0.368   0.366   0.360   0.358   0.345   0.358   0.353   0.366   0.362   0.352   0.365   0.367   0.384
   104.29    0.357   0.371   0.361   0.362   0.357   0.355   0.348   0.352   0.345   0.341   0.360   0.370   0.380
    97.62    0.360   0.362   0.363   0.357   0.367   0.350   0.362   0.352   0.360   0.342   0.351   0.365   0.366
    90.95    0.356   0.363   0.356   0.353   0.364   0.351   0.350   0.351   0.349   0.345   0.347   0.352   0.356
    84.29    0.353   0.360   0.352   0.351   0.335   0.339   0.345   0.353   0.353   0.345   0.352   0.350   0.347
    77.62    0.347   0.351   0.352   0.343   0.343   0.324   0.335   0.342   0.347   0.350   0.355   0.356   0.351
    70.95    0.333   0.347   0.352   0.350   0.342   0.336   0.343   0.345   0.336   0.341   0.333   0.333   0.335
    64.29    0.328   0.323   0.346   0.332   0.328   0.331   0.341   0.335   0.331   0.328   0.333   0.336   0.335
    57.62    0.325   0.330   0.325   0.318   0.311   0.316   0.316   0.317   0.310   0.328   0.313   0.321   0.315
    50.95    0.212   0.222   0.213   0.214   0.210   0.221   0.212   0.218   0.222   0.212   0.214   0.219   0.222
    44.29    0.082   0.089   0.086   0.085   0.083   0.084   0.084   0.085   0.084   0.086   0.087   0.090   0.092

   Mean standard deviation across all grid points:
      u component:    0.464 m/s
      v component:    0.432 m/s
      w component:    0.319 m/s


U-component (X) statistics from the interpolated hub point:

   Mean =   7.0000 m/s
   TI   =   7.3002 %


Normalizing Parameters for Binary Data (approximate statistics):

   UBar  =   7.0000 m/s
   TI(u) =   7.3002 %
   TI(v) =   6.9251 %
   TI(w) =   4.9245 %

   Height Offset =   0.0000 m
   Grid Base     =  44.2876 m

Creating a PERIODIC output file.


Processing complete.  8.5645 CPU seconds used.
