
This summary file was generated by TurbSim (v2.00.01a-bjj, 14-Oct-2014) on 14-Oct-2014 at 12:52:39.


Runtime Options:

    123456  Random seed #1
    789012  Random seed #2
         F  Output binary HH turbulence parameters?
         T  Output formatted turbulence parameters?
         T  Output AeroDyn HH files?
         F  Output AeroDyn FF files?
         F  Output BLADED FF files?
         F  Output tower data?
         F  Output formatted FF files?
         F  Output coherent turbulence time step file?
         T  Clockwise rotation when looking downwind?
 0 -  NONE  IEC turbulence models scaled to exact specified standard deviation


Turbine/Model Specifications:

         5  Vertical grid-point matrix dimension
         5  Horizontal grid-point matrix dimension
     0.050  Time step [seconds]
   600.000  Analysis time [seconds]
    55.800  Usable output time [seconds]
    37.000  Hub height [m]
    30.000  Grid height [m]
    30.000  Grid width [m]
     0.000  Vertical flow angle [degrees]
     0.000  Horizontal flow angle [degrees]


Meteorological Boundary Conditions:

    IECVKM  IEC von Karman spectral model
         1  IEC standard: IEC 61400-1 Ed. 2: 1999
         A  IEC turbulence characteristic
       NTM  IEC Normal Turbulence Model
       N/A  IEC Extreme Turbulence Model (ETM) "c" parameter [m/s]
       IEC  Wind profile type
    10.000  Reference height [m]
     6.000  Reference wind speed [m/s]
       N/A  Jet height [m]
     0.200  Power law exponent
     0.030  Surface roughness length [m]


Non-IEC Meteorological Boundary Conditions:

       N/A  Site latitude [degrees]
       N/A  Gradient Richardson number
       N/A  Friction or shear velocity [m/s]
       N/A  Mixing layer depth [m]
       N/A  Mean hub u'w' Reynolds stress
       N/A  Mean hub u'v' Reynolds stress
       N/A  Mean hub v'w' Reynolds stress


Spatial Coherence Models:

       IEC  u-component coherence model
      NONE  v-component coherence model
      NONE  w-component coherence model
(    8.800, 0.163E-02)  u-component coherence parameters
                   N/A  v-component coherence parameters
                   N/A  w-component coherence parameters
       N/A  Coherence exponent


You have requested that the following file(s) be generated:

   vonKarm.dat (formatted turbulence-parameter file)
   vonKarm.hh  (AeroDyn hub-height file)


Turbulence Simulation Scaling Parameter Summary:

   Turbulence model used                            =  IEC von Karman
   Turbulence characteristic                        =  A
   IEC turbulence type                              =  Normal Turbulence Model
   IEC standard                                     =  IEC 61400-1 Ed. 2: 1999
   Mean wind speed at hub height                    =    7.351 m/s
   Char value of turbulence intensity at 15 m/s     =   18.000%
   Standard deviation slope                         =    2.000
   Characteristic value of standard deviation       =    1.782 m/s
   Turbulence scale                                 =   21.000 m
   Isotropic integral scale                         =   73.500 m
   Characteristic value of hub turbulence intensity =   24.243%
   Gradient Richardson number                       =    0.000

   Wind profile type                                =  Power law on rotor disk, logarithmic elsewhere
   Power law exponent                               =    0.200
   Mean shear across rotor disk                     =    0.041 (m/s)/m
   Assumed rotor diameter                           =   30.000 m
   Surface roughness length                         =    0.030 m

   Nyquist frequency of turbulent wind field        =   10.000 Hz

   Number of time steps in the FFT                  =    12000
   Number of time steps output                      =     1198
   Number of points simulated                       =       25


Mean Flow Angles:

   Vertical   =   0.0 degrees
   Horizontal =   0.0 degrees

Mean Wind Speed Profile:

   Height    Wind Speed   Horizontal Angle  Vertical Angle  U-comp (X)   V-comp (Y)   W-comp (Z)
     (m)        (m/s)         (degrees)       (degrees)       (m/s)        (m/s)        (m/s)   
   ------    ----------   ----------------  --------------  ----------   ----------   ----------
     52.0        7.87            0.00            0.00          7.87         0.00         0.00
     44.5        7.63            0.00            0.00          7.63         0.00         0.00
     37.0        7.35            0.00            0.00          7.35         0.00         0.00
     29.5        7.03            0.00            0.00          7.03         0.00         0.00
     22.0        6.63            0.00            0.00          6.63         0.00         0.00


Harvested Random Seeds after Generation of the Random Numbers:

   1772867622 Harvested seed # 1
    170516282 Harvested seed # 2


Hub-Height Simulated Turbulence Statistical Summary:

   Type of Wind        Min (m/s)   Mean (m/s)    Max (m/s)  Sigma (m/s)       TI (%)
   ----------------    ---------   ----------    ---------  -----------       ------
   Longitudinal (u)         2.19         7.35        12.97        1.653       22.489
   Lateral (v)             -6.51         0.00         5.09        1.755       23.873
   Vertical (w)            -5.41         0.00         6.34        1.755       23.873
   U component              2.19         7.35        12.97        1.653       22.489
   V component             -6.51         0.00         5.09        1.755       23.873
   W component             -5.41         0.00         6.34        1.755       23.873
   Horizontal (U&V)         2.51         7.57        13.03        1.596       21.085
   Total                    3.26         7.77        13.32        1.614       20.783

                       Min Reynolds     Mean Reynolds    Max Reynolds    Correlation
   Product             Stress (m/s)^2   Stress (m/s)^2   Stress (m/s)^2  Coefficient
   ----------------    --------------   --------------   --------------  -----------
   u'w'                    -14.205             0.385            22.253         0.133
   u'v'                    -18.177             0.387            25.085         0.133
   v'w'                    -16.900             0.311            21.428         0.101


   Friction Velocity (Ustar)  =      0.621 m/s
   Maximum Instantaneous TKE  =     26.461 (m/s)^2
   Maximum Instantaneous CTKE =     13.130 (m/s)^2


Grid Point Variance Summary:

   Y-coord  -15.00   -7.50    0.00    7.50   15.00

   Height   Standard deviation at grid points for the u component:
    52.00    1.683   1.668   1.784   1.565   1.666
    44.50    1.658   1.584   1.696   1.691   1.617
    37.00    1.623   1.633   1.653   1.808   1.724
    29.50    1.746   1.615   1.713   1.727   1.625
    22.00    1.744   1.644   1.693   1.802   1.825

   Height   Standard deviation at grid points for the v component:
    52.00    1.755   1.755   1.755   1.755   1.755
    44.50    1.755   1.755   1.755   1.755   1.755
    37.00    1.755   1.755   1.755   1.755   1.755
    29.50    1.755   1.755   1.755   1.755   1.755
    22.00    1.755   1.755   1.755   1.755   1.755

   Height   Standard deviation at grid points for the w component:
    52.00    1.755   1.755   1.755   1.755   1.755
    44.50    1.755   1.755   1.755   1.755   1.755
    37.00    1.755   1.755   1.755   1.755   1.755
    29.50    1.755   1.755   1.755   1.755   1.755
    22.00    1.755   1.755   1.755   1.755   1.755

   Mean standard deviation across all grid points:
      u component:    1.688 m/s
      v component:    1.755 m/s
      w component:    1.755 m/s


Processing complete.  0.1248 CPU seconds used.
